version 2
run General-0-20171120-01:51:33-8744
attr configname General
attr datetime 20171120-01:51:33
attr experiment General
attr inifile omnetpp_Sim1.ini
attr iterationvars "$bitrate=6, $numHosts=2"
attr iterationvarsf bitrate=6,numHosts=2-
attr measurement "$bitrate=6, $numHosts=2"
attr network UsingCSMACAwithRTS
attr processid 8744
attr repetition 0
attr replication #0
attr resultdir results
attr runnumber 0
attr seedset 0
itervar bitrate 6
itervar numHosts 2
param UsingCSMACAwithRTS.host[*].wlan[*].typename "\"Ieee80211Nic\""
param UsingCSMACAwithRTS.configurator.addDefaultRoutes true
param UsingCSMACAwithRTS.configurator.addStaticRoutes true
param UsingCSMACAwithRTS.configurator.addSubnetRoutes true
param UsingCSMACAwithRTS.configurator.assignAddresses true
param UsingCSMACAwithRTS.configurator.assignDisjunctSubnetAddresses true
param UsingCSMACAwithRTS.configurator.config "xml(\"<config><interface hosts='**' address='10.x.x.x' netmask='255.x.x.x'/></config>\")"
param UsingCSMACAwithRTS.configurator.dumpAddresses false
param UsingCSMACAwithRTS.configurator.dumpConfig "\"\""
param UsingCSMACAwithRTS.configurator.dumpLinks false
param UsingCSMACAwithRTS.configurator.dumpRoutes false
param UsingCSMACAwithRTS.configurator.dumpTopology false
param UsingCSMACAwithRTS.configurator.minLinkWeight 1E-3
param UsingCSMACAwithRTS.configurator.optimizeRoutes true
param UsingCSMACAwithRTS.host[*].energyGenerator.generationInterval exponential(25s)
param UsingCSMACAwithRTS.host[*].energyGenerator.powerGeneration 4mW
param UsingCSMACAwithRTS.host[*].energyGenerator.sleepInterval exponential(25s)
param UsingCSMACAwithRTS.host[*].energyGeneratorType "\"AlternatingEpEnergyGenerator\""
param UsingCSMACAwithRTS.host[*].energyManagement.nodeShutdownCapacity "0.1 * energyStorage.nominalCapacity"
param UsingCSMACAwithRTS.host[*].energyManagement.nodeStartCapacity "0.5 * energyStorage.nominalCapacity"
param UsingCSMACAwithRTS.host[*].energyManagementType "\"SimpleEpEnergyManagement\""
param UsingCSMACAwithRTS.host[*].energyStorage.initialCapacity "uniform(0.1 * energyStorage.nominalCapacity, energyStorage.nominalCapacity)"
param UsingCSMACAwithRTS.host[*].energyStorage.nominalCapacity 0.05J
param UsingCSMACAwithRTS.host[*].energyStorageType "\"SimpleEpEnergyStorage\""
param UsingCSMACAwithRTS.host[*].eth[*].csmacdSupport false
param UsingCSMACAwithRTS.host[*].eth[*].egressTCType "\"\""
param UsingCSMACAwithRTS.host[*].eth[*].encap.interfaceTableModule absPath(interfaceTableModule)
param UsingCSMACAwithRTS.host[*].eth[*].encap.useSNAP false
param UsingCSMACAwithRTS.host[*].eth[*].encapType "\"EtherEncap\""
param UsingCSMACAwithRTS.host[*].eth[*].ingressTCType "\"\""
param UsingCSMACAwithRTS.host[*].eth[*].interfaceTableModule "absPath(\".interfaceTable\")"
param UsingCSMACAwithRTS.host[*].eth[*].mac.queueModule "(queueType == \"\" ? \"\" : \"^.queue\")"
param UsingCSMACAwithRTS.host[*].eth[*].mac.txQueueLimit "(queueType == \"\" ? 10000 : 1)"
param UsingCSMACAwithRTS.host[*].eth[*].macType "csmacdSupport ? \"EtherMAC\" : \"EtherMACFullDuplex\""
param UsingCSMACAwithRTS.host[*].eth[*].numInputHooks 0
param UsingCSMACAwithRTS.host[*].eth[*].numOutputHooks 0
param UsingCSMACAwithRTS.host[*].eth[*].qeue.pauseQueue.queueName "\"pauseQueue\""
param UsingCSMACAwithRTS.host[*].eth[*].queue.dataQueueType queueType
param UsingCSMACAwithRTS.host[*].eth[*].queue.pauseQueue.frameCapacity 100
param UsingCSMACAwithRTS.host[*].eth[*].queueType "\"\""
param UsingCSMACAwithRTS.host[*].forwarding false
param UsingCSMACAwithRTS.host[*].hasStatus true
param UsingCSMACAwithRTS.host[*].interfaceTable.displayAddresses false
param UsingCSMACAwithRTS.host[*].lo0.interfaceTableModule "absPath(\".interfaceTable\")"
param UsingCSMACAwithRTS.host[*].lo0.lo.mtu 4470B
param UsingCSMACAwithRTS.host[*].lo0.numInputHooks 0
param UsingCSMACAwithRTS.host[*].lo0.numOutputHooks 0
param UsingCSMACAwithRTS.host[*].mobility.changeAngleBy "normal(0deg, 30deg)"
param UsingCSMACAwithRTS.host[*].mobility.changeInterval "truncnormal(2s, 0.5s)"
param UsingCSMACAwithRTS.host[*].mobility.constraintAreaMaxX 60m
param UsingCSMACAwithRTS.host[*].mobility.constraintAreaMaxY 40m
param UsingCSMACAwithRTS.host[*].mobility.constraintAreaMaxZ 0m
param UsingCSMACAwithRTS.host[*].mobility.constraintAreaMinX 0m
param UsingCSMACAwithRTS.host[*].mobility.constraintAreaMinY 0m
param UsingCSMACAwithRTS.host[*].mobility.constraintAreaMinZ 0m
param UsingCSMACAwithRTS.host[*].mobility.coordinateSystemModule "\"\""
param UsingCSMACAwithRTS.host[*].mobility.initFromDisplayString false
param UsingCSMACAwithRTS.host[*].mobility.speed "truncnormal(20mps, 8mps)"
param UsingCSMACAwithRTS.host[*].mobility.startAngle "uniform(0deg, 360deg)"
param UsingCSMACAwithRTS.host[*].mobility.updateInterval 100ms
param UsingCSMACAwithRTS.host[*].mobility.visualizeMobility true
param UsingCSMACAwithRTS.host[*].mobility.visualRepresentation "\"^\""
param UsingCSMACAwithRTS.host[*].mobilityType "\"MassMobility\""
param UsingCSMACAwithRTS.host[*].multicastForwarding false
param UsingCSMACAwithRTS.host[*].networkLayer.arp.cacheTimeout 120s
param UsingCSMACAwithRTS.host[*].networkLayer.arp.respondToProxyARP proxyARP
param UsingCSMACAwithRTS.host[*].networkLayer.arp.retryCount 3
param UsingCSMACAwithRTS.host[*].networkLayer.arp.retryTimeout 1s
param UsingCSMACAwithRTS.host[*].networkLayer.arpType "\"GlobalARP\""
param UsingCSMACAwithRTS.host[*].networkLayer.configurator.configureRoutingTable true
param UsingCSMACAwithRTS.host[*].networkLayer.configurator.networkConfiguratorModule "\"configurator\""
param UsingCSMACAwithRTS.host[*].networkLayer.igmp.enabled true
param UsingCSMACAwithRTS.host[*].networkLayer.igmp.lastMemberQueryInterval 1s
param UsingCSMACAwithRTS.host[*].networkLayer.igmp.queryInterval 125s
param UsingCSMACAwithRTS.host[*].networkLayer.igmp.queryResponseInterval 10s
param UsingCSMACAwithRTS.host[*].networkLayer.igmp.robustnessVariable 2
param UsingCSMACAwithRTS.host[*].networkLayer.igmp.unsolicitedReportInterval 10s
param UsingCSMACAwithRTS.host[*].networkLayer.igmpType "\"IGMPv2\""
param UsingCSMACAwithRTS.host[*].networkLayer.interfaceTableModule "absPath(\".interfaceTable\")"
param UsingCSMACAwithRTS.host[*].networkLayer.ip.arpModule "absPath(\".arp\")"
param UsingCSMACAwithRTS.host[*].networkLayer.ip.forceBroadcast false
param UsingCSMACAwithRTS.host[*].networkLayer.ip.fragmentTimeout 60s
param UsingCSMACAwithRTS.host[*].networkLayer.ip.icmpModule "absPath(\".icmp\")"
param UsingCSMACAwithRTS.host[*].networkLayer.ip.multicastTimeToLive 32
param UsingCSMACAwithRTS.host[*].networkLayer.ip.procDelay 0s
param UsingCSMACAwithRTS.host[*].networkLayer.ip.timeToLive 32
param UsingCSMACAwithRTS.host[*].networkLayer.ip.useProxyARP true
param UsingCSMACAwithRTS.host[*].networkLayer.proxyARP false
param UsingCSMACAwithRTS.host[*].networkLayerType "\"IPv4NetworkLayer\""
param UsingCSMACAwithRTS.host[*].numExtInterfaces 0
param UsingCSMACAwithRTS.host[*].numPcapRecorders 0
param UsingCSMACAwithRTS.host[0].numPingApps 0
param UsingCSMACAwithRTS.host[1].numPingApps 1
param UsingCSMACAwithRTS.host[2].numPingApps 0
param UsingCSMACAwithRTS.host[3].numPingApps 1
param UsingCSMACAwithRTS.host[*].numRadios 1
param UsingCSMACAwithRTS.host[*].numSctpApps 0
param UsingCSMACAwithRTS.host[*].numTcpApps 0
param UsingCSMACAwithRTS.host[*].numTunInterfaces 0
param UsingCSMACAwithRTS.host[*].numUdpApps 0
param UsingCSMACAwithRTS.host[*].osgModel "\"\""
param UsingCSMACAwithRTS.host[*].osgModelColor "\"\""
param UsingCSMACAwithRTS.host[*].pcapRecorder[*].alwaysFlush false
param UsingCSMACAwithRTS.host[*].pcapRecorder[*].dumpBadFrames true
param UsingCSMACAwithRTS.host[*].pcapRecorder[*].moduleNamePatterns "\"wlan[*] eth[*] ppp[*] ext[*]\""
param UsingCSMACAwithRTS.host[*].pcapRecorder[*].pcapFile "\"\""
param UsingCSMACAwithRTS.host[*].pcapRecorder[*].receivingSignalNames "\"packetReceivedFromLower\""
param UsingCSMACAwithRTS.host[*].pcapRecorder[*].sendingSignalNames "\"packetSentToLower\""
param UsingCSMACAwithRTS.host[*].pcapRecorder[*].snaplen 65535
param UsingCSMACAwithRTS.host[*].pcapRecorder[*].verbose false
param UsingCSMACAwithRTS.host[*].pingApp[*].continuous false
param UsingCSMACAwithRTS.host[*].pingApp[*].count -1
param UsingCSMACAwithRTS.host[1].pingApp[*].destAddr "\"host[0]\""
param UsingCSMACAwithRTS.host[3].pingApp[*].destAddr "\"host[2]\""
param UsingCSMACAwithRTS.host[*].pingApp[*].hopLimit 32
param UsingCSMACAwithRTS.host[*].pingApp[*].packetSize 56B
param UsingCSMACAwithRTS.host[*].pingApp[*].printPing true
param UsingCSMACAwithRTS.host[*].pingApp[*].sendInterval 1s
param UsingCSMACAwithRTS.host[*].pingApp[*].sleepDuration 0s
param UsingCSMACAwithRTS.host[*].pingApp[*].srcAddr "\"\""
param UsingCSMACAwithRTS.host[*].pingApp[*].startTime "uniform(0s, this.sleepDuration + this.sendInterval)"
param UsingCSMACAwithRTS.host[*].pingApp[*].stopTime -1s
param UsingCSMACAwithRTS.host[*].ppp[*].egressTCType "\"\""
param UsingCSMACAwithRTS.host[*].ppp[*].ingressTCType "\"\""
param UsingCSMACAwithRTS.host[*].ppp[*].interfaceTableModule "absPath(\".interfaceTable\")"
param UsingCSMACAwithRTS.host[*].ppp[*].numInputHooks 0
param UsingCSMACAwithRTS.host[*].ppp[*].numOutputHooks 0
param UsingCSMACAwithRTS.host[*].ppp[*].ppp.interfaceTableModule absPath(interfaceTableModule)
param UsingCSMACAwithRTS.host[*].ppp[*].ppp.mtu 4470B
param UsingCSMACAwithRTS.host[*].ppp[*].ppp.queueModule "(queueType == \"\" ? \"\" : \"^.queue\")"
param UsingCSMACAwithRTS.host[*].ppp[*].ppp.txQueueLimit "(queueType == \"\" ? 10000 : 1)"
param UsingCSMACAwithRTS.host[*].ppp[*].queue.frameCapacity 100
param UsingCSMACAwithRTS.host[*].ppp[*].queue.queueName "\"l2queue\""
param UsingCSMACAwithRTS.host[*].ppp[*].queueType "\"DropTailQueue\""
param UsingCSMACAwithRTS.host[*].routingTable.forwarding forwarding
param UsingCSMACAwithRTS.host[*].routingTable.interfaceTableModule "absPath(\".interfaceTable\")"
param UsingCSMACAwithRTS.host[*].routingTable.multicastForwarding multicastForwarding
param UsingCSMACAwithRTS.host[*].routingTable.netmaskRoutes "\"*\""
param UsingCSMACAwithRTS.host[*].routingTable.routerId "\"auto\""
param UsingCSMACAwithRTS.host[*].routingTable.routingFile "\"\""
param UsingCSMACAwithRTS.host[*].routingTable.useAdminDist false
param UsingCSMACAwithRTS.host[*].routingTableType "\"IPv4RoutingTable\""
param UsingCSMACAwithRTS.host[*].sctpType "firstAvailableOrEmpty(\"SCTP\")"
param UsingCSMACAwithRTS.host[*].status.initialStatus "\"UP\""
param UsingCSMACAwithRTS.host[*].tcpType "firstAvailableOrEmpty(\"TCP\", \"TCP_lwIP\", \"TCP_NSC\")"
param UsingCSMACAwithRTS.host[*].tun[*].interfaceTableModule "absPath(\".interfaceTable\")"
param UsingCSMACAwithRTS.host[*].tun[*].mtu 1500B
param UsingCSMACAwithRTS.host[*].udpType "firstAvailableOrEmpty(\"UDP\")"
param UsingCSMACAwithRTS.host[*].wlan[*]._agentNeeded "(mgmtType == \"Ieee80211MgmtSTA\")"
param UsingCSMACAwithRTS.host[*].wlan[*].agent.activeScan true
param UsingCSMACAwithRTS.host[*].wlan[*].agent.associationTimeout 5s
param UsingCSMACAwithRTS.host[*].wlan[*].agent.authenticationTimeout 5s
param UsingCSMACAwithRTS.host[*].wlan[*].agent.channelsToScan "\"\""
param UsingCSMACAwithRTS.host[*].wlan[*].agent.default_ssid "\"SSID\""
param UsingCSMACAwithRTS.host[*].wlan[*].agent.interfaceTableModule absPath(interfaceTableModule)
param UsingCSMACAwithRTS.host[*].wlan[*].agent.maxChannelTime 300ms
param UsingCSMACAwithRTS.host[*].wlan[*].agent.minChannelTime 150ms
param UsingCSMACAwithRTS.host[*].wlan[*].agent.probeDelay 100ms
param UsingCSMACAwithRTS.host[*].wlan[*].agent.startingTime -1s
param UsingCSMACAwithRTS.host[*].wlan[*].bitrate 6Mbps
param UsingCSMACAwithRTS.host[*].wlan[*].classifierType "\"\""
param UsingCSMACAwithRTS.host[*].wlan[*].interfaceTableModule "absPath(\".interfaceTable\")"
param UsingCSMACAwithRTS.host[*].wlan[*].mac.address "\"auto\""
param UsingCSMACAwithRTS.host[*].wlan[*].mac.AIFSN 2
param UsingCSMACAwithRTS.host[*].wlan[*].mac.AIFSN0 7
param UsingCSMACAwithRTS.host[*].wlan[*].mac.AIFSN1 3
param UsingCSMACAwithRTS.host[*].wlan[*].mac.AIFSN2 2
param UsingCSMACAwithRTS.host[*].wlan[*].mac.AIFSN3 2
param UsingCSMACAwithRTS.host[*].wlan[*].mac.basicBitrate 2Mbps
param UsingCSMACAwithRTS.host[*].wlan[*].mac.bitrate bitrate
param UsingCSMACAwithRTS.host[*].wlan[*].mac.controlBitrate 2Mbps
param UsingCSMACAwithRTS.host[*].wlan[*].mac.cwMaxData -1
param UsingCSMACAwithRTS.host[*].wlan[*].mac.cwMinData -1
param UsingCSMACAwithRTS.host[*].wlan[*].mac.dataBitrate 54Mbps
param UsingCSMACAwithRTS.host[*].wlan[*].mac.dcf.channelAccess.contention.backoffOptimization true
param UsingCSMACAwithRTS.host[*].wlan[*].mac.dcf.channelAccess.contention.initialChannelBusy true
param UsingCSMACAwithRTS.host[*].wlan[*].mac.dcf.channelAccess.cwMax cwMaxData
param UsingCSMACAwithRTS.host[*].wlan[*].mac.dcf.channelAccess.cwMin cwMinData
param UsingCSMACAwithRTS.host[*].wlan[*].mac.dcf.channelAccess.difsTime -1s
param UsingCSMACAwithRTS.host[*].wlan[*].mac.dcf.channelAccess.rateSelectionModule "\"^.rateSelection\""
param UsingCSMACAwithRTS.host[*].wlan[*].mac.dcf.channelAccess.rxModule "\"^.\" + rxModule"
param UsingCSMACAwithRTS.host[*].wlan[*].mac.dcf.ctsPolicy.rateSelectionModule "\"^.rateSelection\""
param UsingCSMACAwithRTS.host[*].wlan[*].mac.dcf.ctsPolicy.rxModule "\"^.\" + rxModule"
param UsingCSMACAwithRTS.host[*].wlan[*].mac.dcf.maxQueueSize maxQueueSize
param UsingCSMACAwithRTS.host[*].wlan[*].mac.dcf.originatorAckPolicy.ackTimeout -1s
param UsingCSMACAwithRTS.host[*].wlan[*].mac.dcf.originatorAckPolicy.rateSelectionModule "\"^.rateSelection\""
param UsingCSMACAwithRTS.host[*].wlan[*].mac.dcf.originatorMacDataService.fragmentationPolicy.fragmentationThreshold 1500B
param UsingCSMACAwithRTS.host[*].wlan[*].mac.dcf.originatorMacDataService.fragmentationPolicyModuleType "\"BasicFragmentationPolicy\""
param UsingCSMACAwithRTS.host[*].wlan[*].mac.dcf.originatorProtectionMechanism.rateSelectionModule "\"^.rateSelection\""
param UsingCSMACAwithRTS.host[*].wlan[*].mac.dcf.prioritizeMulticast false
param UsingCSMACAwithRTS.host[*].wlan[*].mac.dcf.rateControlType rateControlType
param UsingCSMACAwithRTS.host[*].wlan[*].mac.dcf.rateSelection.controlFrameBitrate controlBitrate
param UsingCSMACAwithRTS.host[*].wlan[*].mac.dcf.rateSelection.dataFrameBitrate dataBitrate
param UsingCSMACAwithRTS.host[*].wlan[*].mac.dcf.rateSelection.mgmtFrameBitrate mgmtBitrate
param UsingCSMACAwithRTS.host[*].wlan[*].mac.dcf.rateSelection.multicastFrameBitrate multicastBitrate
param UsingCSMACAwithRTS.host[*].wlan[*].mac.dcf.rateSelection.rateControlModule "\"^.rateControl\""
param UsingCSMACAwithRTS.host[*].wlan[*].mac.dcf.rateSelection.responseAckFrameBitrate controlBitrate
param UsingCSMACAwithRTS.host[*].wlan[*].mac.dcf.rateSelection.responseCtsFrameBitrate -1bps
param UsingCSMACAwithRTS.host[*].wlan[*].mac.dcf.recipientAckPolicy.rateSelectionModule "\"^.rateSelection\""
param UsingCSMACAwithRTS.host[*].wlan[*].mac.dcf.recoveryProcedure.cwCalculatorModule "\"^.channelAccess\""
param UsingCSMACAwithRTS.host[*].wlan[*].mac.dcf.recoveryProcedure.longRetryLimit 4
param UsingCSMACAwithRTS.host[*].wlan[*].mac.dcf.recoveryProcedure.rtsPolicyModule "\"^.rtsPolicy\""
param UsingCSMACAwithRTS.host[*].wlan[*].mac.dcf.recoveryProcedure.shortRetryLimit 7
param UsingCSMACAwithRTS.host[*].wlan[*].mac.dcf.rtsPolicy.ctsTimeout -1s
param UsingCSMACAwithRTS.host[*].wlan[*].mac.dcf.rtsPolicy.rateSelectionModule "\"^.rateSelection\""
param UsingCSMACAwithRTS.host[*].wlan[*].mac.dcf.rtsPolicy.rtsThreshold rtsThresholdBytes
param UsingCSMACAwithRTS.host[*].wlan[*].mac.dcf.rxModule "\"^.rx\""
param UsingCSMACAwithRTS.host[*].wlan[*].mac.dcf.txModule "\"^.tx\""
param UsingCSMACAwithRTS.host[*].wlan[*].mac.EDCA false
param UsingCSMACAwithRTS.host[*].wlan[*].mac.hcf.ctsPolicy.rateSelectionModule "\"^.rateSelection\""
param UsingCSMACAwithRTS.host[*].wlan[*].mac.hcf.ctsPolicy.rxModule "\"^.\" + rxModule"
param UsingCSMACAwithRTS.host[*].wlan[*].mac.hcf.edca.edcaf[*].accessCategory "\"AC_BE\""
param UsingCSMACAwithRTS.host[*].wlan[*].mac.hcf.edca.edcaf[*].accessCategory "\"AC_BK\""
param UsingCSMACAwithRTS.host[*].wlan[*].mac.hcf.edca.edcaf[*].accessCategory "\"AC_VI\""
param UsingCSMACAwithRTS.host[*].wlan[*].mac.hcf.edca.edcaf[*].accessCategory "\"AC_VO\""
param UsingCSMACAwithRTS.host[*].wlan[*].mac.hcf.edca.edcaf[*].aifsn -1
param UsingCSMACAwithRTS.host[*].wlan[*].mac.hcf.edca.edcaf[*].collisionControllerModule "\"^.collisionController\""
param UsingCSMACAwithRTS.host[*].wlan[*].mac.hcf.edca.edcaf[*].contention.backoffOptimization true
param UsingCSMACAwithRTS.host[*].wlan[*].mac.hcf.edca.edcaf[*].contention.initialChannelBusy true
param UsingCSMACAwithRTS.host[*].wlan[*].mac.hcf.edca.edcaf[*].cwMax -1
param UsingCSMACAwithRTS.host[*].wlan[*].mac.hcf.edca.edcaf[*].cwMin -1
param UsingCSMACAwithRTS.host[*].wlan[*].mac.hcf.edca.edcaf[*].rateSelectionModule "\"^.\" + rateSelectionModule"
param UsingCSMACAwithRTS.host[*].wlan[*].mac.hcf.edca.edcaf[*].rxModule "\"^.\" + rxModule"
param UsingCSMACAwithRTS.host[*].wlan[*].mac.hcf.edca.numEdcafs numEdcafs
param UsingCSMACAwithRTS.host[*].wlan[*].mac.hcf.edca.rateSelectionModule "\"^.rateSelection\""
param UsingCSMACAwithRTS.host[*].wlan[*].mac.hcf.edca.rxModule "\"^.\" + rxModule"
param UsingCSMACAwithRTS.host[*].wlan[*].mac.hcf.edcaDataRecoveryProcedures[*].cwCalculatorModule "\"^.edca.edcaf[\" + string(index) + \"]\""
param UsingCSMACAwithRTS.host[*].wlan[*].mac.hcf.edcaDataRecoveryProcedures[*].longRetryLimit 4
param UsingCSMACAwithRTS.host[*].wlan[*].mac.hcf.edcaDataRecoveryProcedures[*].rtsPolicyModule "\"^.rtsPolicy\""
param UsingCSMACAwithRTS.host[*].wlan[*].mac.hcf.edcaDataRecoveryProcedures[*].shortRetryLimit 7
param UsingCSMACAwithRTS.host[*].wlan[*].mac.hcf.edcaMgmtAndNonQoSRecoveryProcedure.cwCalculatorModule "\"^.edca.edcaf[1]\""
param UsingCSMACAwithRTS.host[*].wlan[*].mac.hcf.edcaMgmtAndNonQoSRecoveryProcedure.longRetryLimit 4
param UsingCSMACAwithRTS.host[*].wlan[*].mac.hcf.edcaMgmtAndNonQoSRecoveryProcedure.rtsPolicyModule "\"^.rtsPolicy\""
param UsingCSMACAwithRTS.host[*].wlan[*].mac.hcf.edcaMgmtAndNonQoSRecoveryProcedure.shortRetryLimit 7
param UsingCSMACAwithRTS.host[*].wlan[*].mac.hcf.edcaTxopProcedures[*].txopLimit -1s
param UsingCSMACAwithRTS.host[*].wlan[*].mac.hcf.isBlockAckSupported false
param UsingCSMACAwithRTS.host[*].wlan[*].mac.hcf.maxQueueSize maxQueueSize
param UsingCSMACAwithRTS.host[*].wlan[*].mac.hcf.numEdcafs 4
param UsingCSMACAwithRTS.host[*].wlan[*].mac.hcf.originatorAckPolicy.ackTimeout -1s
param UsingCSMACAwithRTS.host[*].wlan[*].mac.hcf.originatorAckPolicy.blockAckReqTreshold 5
param UsingCSMACAwithRTS.host[*].wlan[*].mac.hcf.originatorAckPolicy.blockAckTimeout -1s
param UsingCSMACAwithRTS.host[*].wlan[*].mac.hcf.originatorAckPolicy.maxBlockAckPolicyFrameLength 1000B
param UsingCSMACAwithRTS.host[*].wlan[*].mac.hcf.originatorAckPolicy.rateSelectionModule "\"^.rateSelection\""
param UsingCSMACAwithRTS.host[*].wlan[*].mac.hcf.originatorBlockAckAgreementPolicy.aMsduSupported true
param UsingCSMACAwithRTS.host[*].wlan[*].mac.hcf.originatorBlockAckAgreementPolicy.blockAckTimeoutValue 0s
param UsingCSMACAwithRTS.host[*].wlan[*].mac.hcf.originatorBlockAckAgreementPolicy.delayedAckPolicySupported false
param UsingCSMACAwithRTS.host[*].wlan[*].mac.hcf.originatorBlockAckAgreementPolicy.maximumAllowedBufferSize 64
param UsingCSMACAwithRTS.host[*].wlan[*].mac.hcf.originatorBlockAckAgreementPolicy.originatorAckPolicyModule "\"^.originatorAckPolicy\""
param UsingCSMACAwithRTS.host[*].wlan[*].mac.hcf.originatorMacDataService.aMsduAggregationPolicyType "\"BasicMsduAggregationPolicy\""
param UsingCSMACAwithRTS.host[*].wlan[*].mac.hcf.originatorMacDataService.fragmentationPolicy.fragmentationThreshold 1500B
param UsingCSMACAwithRTS.host[*].wlan[*].mac.hcf.originatorMacDataService.fragmentationPolicyType "\"BasicFragmentationPolicy\""
param UsingCSMACAwithRTS.host[*].wlan[*].mac.hcf.originatorMacDataService.msduAggregationPolicy.aggregationLengthThreshold -1
param UsingCSMACAwithRTS.host[*].wlan[*].mac.hcf.originatorMacDataService.msduAggregationPolicy.maxAMsduSize 4065
param UsingCSMACAwithRTS.host[*].wlan[*].mac.hcf.originatorMacDataService.msduAggregationPolicy.qOsCheck true
param UsingCSMACAwithRTS.host[*].wlan[*].mac.hcf.originatorMacDataService.msduAggregationPolicy.subframeNumThreshold -1
param UsingCSMACAwithRTS.host[*].wlan[*].mac.hcf.prioritizeMulticast false
param UsingCSMACAwithRTS.host[*].wlan[*].mac.hcf.rateControlType rateControlType
param UsingCSMACAwithRTS.host[*].wlan[*].mac.hcf.rateSelection.controlFrameBitrate controlBitrate
param UsingCSMACAwithRTS.host[*].wlan[*].mac.hcf.rateSelection.dataFrameBitrate dataBitrate
param UsingCSMACAwithRTS.host[*].wlan[*].mac.hcf.rateSelection.mgmtFrameBitrate mgmtBitrate
param UsingCSMACAwithRTS.host[*].wlan[*].mac.hcf.rateSelection.multicastFrameBitrate multicastBitrate
param UsingCSMACAwithRTS.host[*].wlan[*].mac.hcf.rateSelection.rateControlModule "\"^.rateControl\""
param UsingCSMACAwithRTS.host[*].wlan[*].mac.hcf.rateSelection.responseAckFrameBitrate controlBitrate
param UsingCSMACAwithRTS.host[*].wlan[*].mac.hcf.rateSelection.responseBlockAckFrameBitrate -1bps
param UsingCSMACAwithRTS.host[*].wlan[*].mac.hcf.rateSelection.responseCtsFrameBitrate -1bps
param UsingCSMACAwithRTS.host[*].wlan[*].mac.hcf.recipientAckPolicy.rateSelectionModule "\"^.rateSelection\""
param UsingCSMACAwithRTS.host[*].wlan[*].mac.hcf.recipientBlockAckAgreementPolicy.aMsduSupported true
param UsingCSMACAwithRTS.host[*].wlan[*].mac.hcf.recipientBlockAckAgreementPolicy.blockAckTimeoutValue 0s
param UsingCSMACAwithRTS.host[*].wlan[*].mac.hcf.recipientBlockAckAgreementPolicy.delayedAckPolicySupported false
param UsingCSMACAwithRTS.host[*].wlan[*].mac.hcf.recipientBlockAckAgreementPolicy.maximumAllowedBufferSize 64
param UsingCSMACAwithRTS.host[*].wlan[*].mac.hcf.rtsPolicy.ctsTimeout -1s
param UsingCSMACAwithRTS.host[*].wlan[*].mac.hcf.rtsPolicy.rateSelectionModule "\"^.rateSelection\""
param UsingCSMACAwithRTS.host[*].wlan[*].mac.hcf.rtsPolicy.rtsThreshold 2346B
param UsingCSMACAwithRTS.host[*].wlan[*].mac.hcf.rxModule "\"^.rx\""
param UsingCSMACAwithRTS.host[*].wlan[*].mac.hcf.singleProtectionMechanism.rateSelectionModule "\"^.rateSelection\""
param UsingCSMACAwithRTS.host[*].wlan[*].mac.hcf.txModule "\"^.tx\""
param UsingCSMACAwithRTS.host[*].wlan[*].mac.initialRateControlRate -1bps
param UsingCSMACAwithRTS.host[*].wlan[*].mac.maxQueueSize 14
param UsingCSMACAwithRTS.host[*].wlan[*].mac.modeSet opMode
param UsingCSMACAwithRTS.host[*].wlan[*].mac.mtu 2304B
param UsingCSMACAwithRTS.host[*].wlan[*].mac.multicastBitrate 2Mbps
param UsingCSMACAwithRTS.host[*].wlan[*].mac.opMode opMode
param UsingCSMACAwithRTS.host[*].wlan[*].mac.prioritizeMulticast false
param UsingCSMACAwithRTS.host[*].wlan[*].mac.qosStation false
param UsingCSMACAwithRTS.host[*].wlan[*].mac.rateControlType "\"\""
param UsingCSMACAwithRTS.host[*].wlan[*].mac.retryLimit -1
param UsingCSMACAwithRTS.host[*].wlan[*].mac.rtsThresholdBytes 100B
param UsingCSMACAwithRTS.host[*].wlan[*].mac.rx.statisticsModule "\"\""
param UsingCSMACAwithRTS.host[*].wlan[*].mac.slotTime -1s
param UsingCSMACAwithRTS.host[*].wlan[*].mac.tx.rxModule "\"^.rx\""
param UsingCSMACAwithRTS.host[*].wlan[*].mac.tx.statisticsModule "\"\""
param UsingCSMACAwithRTS.host[*].wlan[*].mac.TXOP0 0s
param UsingCSMACAwithRTS.host[*].wlan[*].mac.TXOP1 0s
param UsingCSMACAwithRTS.host[*].wlan[*].mac.TXOP2 3.008ms
param UsingCSMACAwithRTS.host[*].wlan[*].mac.TXOP3 1.504ms
param UsingCSMACAwithRTS.host[*].wlan[*].macType "\"Ieee80211CompatibleMac\""
param UsingCSMACAwithRTS.host[*].wlan[*].mgmt.macModule "\"^.mac\""
param UsingCSMACAwithRTS.host[*].wlan[*].mgmtType "\"Ieee80211MgmtAdhoc\""
param UsingCSMACAwithRTS.host[*].wlan[*].opMode "\"g(mixed)\""
param UsingCSMACAwithRTS.host[*].wlan[*].radio.antenna.mobilityModule "\".mobility\""
param UsingCSMACAwithRTS.host[*].wlan[*].radio.antenna.numAntennas 1
param UsingCSMACAwithRTS.host[*].wlan[*].radio.antennaType "\"IsotropicAntenna\""
param UsingCSMACAwithRTS.host[*].wlan[*].radio.bandName "\"2.4 GHz\""
param UsingCSMACAwithRTS.host[*].wlan[*].radio.bandwidth 2MHz
param UsingCSMACAwithRTS.host[*].wlan[*].radio.carrierFrequency 2.412GHz
param UsingCSMACAwithRTS.host[*].wlan[*].radio.channelNumber 0
param UsingCSMACAwithRTS.host[*].wlan[*].radio.displayCommunicationRange false
param UsingCSMACAwithRTS.host[*].wlan[*].radio.displayInterferenceRange false
param UsingCSMACAwithRTS.host[*].wlan[*].radio.energyConsumerType "\"StateBasedEpEnergyConsumer\""
param UsingCSMACAwithRTS.host[*].wlan[*].radio.opMode opMode
param UsingCSMACAwithRTS.host[*].wlan[*].radio.radioMediumModule "\"radioMedium\""
param UsingCSMACAwithRTS.host[*].wlan[*].radio.receiver.bandName bandName
param UsingCSMACAwithRTS.host[*].wlan[*].radio.receiver.bandwidth bandwidth
param UsingCSMACAwithRTS.host[*].wlan[*].radio.receiver.carrierFrequency carrierFrequency
param UsingCSMACAwithRTS.host[*].wlan[*].radio.receiver.channelNumber channelNumber
param UsingCSMACAwithRTS.host[*].wlan[*].radio.receiver.energyDetection -85dBm
param UsingCSMACAwithRTS.host[*].wlan[*].radio.receiver.errorModelType "\"Ieee80211NistErrorModel\""
param UsingCSMACAwithRTS.host[*].wlan[*].radio.receiver.modulation "\"BPSK\""
param UsingCSMACAwithRTS.host[*].wlan[*].radio.receiver.opMode opMode
param UsingCSMACAwithRTS.host[*].wlan[*].radio.receiver.sensitivity -85dBm
param UsingCSMACAwithRTS.host[*].wlan[*].radio.receiver.snirThreshold 4dB
param UsingCSMACAwithRTS.host[*].wlan[*].radio.receiverType "\"Ieee80211ScalarReceiver\""
param UsingCSMACAwithRTS.host[*].wlan[*].radio.separateReceptionParts false
param UsingCSMACAwithRTS.host[*].wlan[*].radio.separateTransmissionParts false
param UsingCSMACAwithRTS.host[*].wlan[*].radio.switchingTimes "\"ms 0 0 0 0 0 0 0 0 0 0 0 0 0 0 0 0 0 0 0 0 0 0 0 0 0\""
param UsingCSMACAwithRTS.host[*].wlan[*].radio.transmitter.bandName bandName
param UsingCSMACAwithRTS.host[*].wlan[*].radio.transmitter.bandwidth bandwidth
param UsingCSMACAwithRTS.host[*].wlan[*].radio.transmitter.bitrate bitrate
param UsingCSMACAwithRTS.host[*].wlan[*].radio.transmitter.carrierFrequency carrierFrequency
param UsingCSMACAwithRTS.host[*].wlan[*].radio.transmitter.channelNumber channelNumber
param UsingCSMACAwithRTS.host[*].wlan[*].radio.transmitter.headerBitLength 192b
param UsingCSMACAwithRTS.host[*].wlan[*].radio.transmitter.modulation "\"BPSK\""
param UsingCSMACAwithRTS.host[*].wlan[*].radio.transmitter.opMode opMode
param UsingCSMACAwithRTS.host[*].wlan[*].radio.transmitter.power 20mW
param UsingCSMACAwithRTS.host[*].wlan[*].radio.transmitter.preambleDuration 0s/0
param UsingCSMACAwithRTS.host[*].wlan[*].radio.transmitterType "\"Ieee80211ScalarTransmitter\""
param UsingCSMACAwithRTS.host[*].wlan[*].radioType "\"Ieee80211ScalarRadio\""
param UsingCSMACAwithRTS.numHosts 2
param UsingCSMACAwithRTS.radioMedium.analogModelType "\"ScalarAnalogModel\""
param UsingCSMACAwithRTS.radioMedium.backgroundNoise.power -110dBm
param UsingCSMACAwithRTS.radioMedium.backgroundNoiseType "\"IsotropicScalarBackgroundNoise\""
param UsingCSMACAwithRTS.radioMedium.communicationCacheType "\"VectorCommunicationCache\""
param UsingCSMACAwithRTS.radioMedium.listeningFilter false
param UsingCSMACAwithRTS.radioMedium.macAddressFilter false
param UsingCSMACAwithRTS.radioMedium.mediumLimitCache.carrierFrequency 2.4GHz
param UsingCSMACAwithRTS.radioMedium.mediumLimitCache.maxAntennaGain 0dB
param UsingCSMACAwithRTS.radioMedium.mediumLimitCache.maxCommunicationRange 0m/0
param UsingCSMACAwithRTS.radioMedium.mediumLimitCache.maxInterferenceRange 0m/0
param UsingCSMACAwithRTS.radioMedium.mediumLimitCache.maxSpeed 0mps/0
param UsingCSMACAwithRTS.radioMedium.mediumLimitCache.maxTransmissionDuration 10ms
param UsingCSMACAwithRTS.radioMedium.mediumLimitCache.maxTransmissionPower 0W/0
param UsingCSMACAwithRTS.radioMedium.mediumLimitCache.minInterferencePower -110dBm
param UsingCSMACAwithRTS.radioMedium.mediumLimitCache.minInterferenceTime 1ps
param UsingCSMACAwithRTS.radioMedium.mediumLimitCache.minReceptionPower -85dBm
param UsingCSMACAwithRTS.radioMedium.mediumLimitCacheType "\"MediumLimitCache\""
param UsingCSMACAwithRTS.radioMedium.neighborCacheType "\"\""
param UsingCSMACAwithRTS.radioMedium.obstacleLossType "\"\""
param UsingCSMACAwithRTS.radioMedium.pathLoss.alpha 2
param UsingCSMACAwithRTS.radioMedium.pathLoss.systemLoss 0dB
param UsingCSMACAwithRTS.radioMedium.pathLossType "\"RayleighFading\""
param UsingCSMACAwithRTS.radioMedium.physicalEnvironmentModule "\"physicalEnvironment\""
param UsingCSMACAwithRTS.radioMedium.propagation.ignoreMovementDuringPropagation true
param UsingCSMACAwithRTS.radioMedium.propagation.ignoreMovementDuringReception true
param UsingCSMACAwithRTS.radioMedium.propagation.ignoreMovementDuringTransmission true
param UsingCSMACAwithRTS.radioMedium.propagation.propagationSpeed 299792458mps
param UsingCSMACAwithRTS.radioMedium.propagationType "\"ConstantSpeedPropagation\""
param UsingCSMACAwithRTS.radioMedium.radioModeFilter false
param UsingCSMACAwithRTS.radioMedium.rangeFilter "\"\""
param UsingCSMACAwithRTS.radioMedium.recordCommunicationLog false
param UsingCSMACAwithRTS.radioMediumType "\"Ieee80211ScalarRadioMedium\""
param UsingCSMACAwithRTS.visualizer.dataLinkVisualizer.displayLinks false
param UsingCSMACAwithRTS.visualizer.dataLinkVisualizer.fadeOutAnimationSpeed 0
param UsingCSMACAwithRTS.visualizer.dataLinkVisualizer.fadeOutMode "\"realTime\""
param UsingCSMACAwithRTS.visualizer.dataLinkVisualizer.fadeOutTime 1s
param UsingCSMACAwithRTS.visualizer.dataLinkVisualizer.interfaceFilter "\"*\""
param UsingCSMACAwithRTS.visualizer.dataLinkVisualizer.labelColor "\"darkcyan\""
param UsingCSMACAwithRTS.visualizer.dataLinkVisualizer.labelFont "\"<default>, 8px\""
param UsingCSMACAwithRTS.visualizer.dataLinkVisualizer.labelFormat "\"%n\""
param UsingCSMACAwithRTS.visualizer.dataLinkVisualizer.lineColor "\"darkcyan\""
param UsingCSMACAwithRTS.visualizer.dataLinkVisualizer.lineContactMode "\"rectangular\""
param UsingCSMACAwithRTS.visualizer.dataLinkVisualizer.lineContactSpacing 3
param UsingCSMACAwithRTS.visualizer.dataLinkVisualizer.lineShift 16
param UsingCSMACAwithRTS.visualizer.dataLinkVisualizer.lineShiftMode "\"normal\""
param UsingCSMACAwithRTS.visualizer.dataLinkVisualizer.lineStyle "\"solid\""
param UsingCSMACAwithRTS.visualizer.dataLinkVisualizer.lineWidth 3
param UsingCSMACAwithRTS.visualizer.dataLinkVisualizer.nodeFilter "\"*\""
param UsingCSMACAwithRTS.visualizer.dataLinkVisualizer.packetFilter "\"*\""
param UsingCSMACAwithRTS.visualizer.dataLinkVisualizer.subscriptionModule "\"<root>\""
param UsingCSMACAwithRTS.visualizer.dataLinkVisualizer.tags "\"\""
param UsingCSMACAwithRTS.visualizer.dataLinkVisualizer.visualizerTargetModule "\"<root>\""
param UsingCSMACAwithRTS.visualizer.dataLinkVisualizer.zIndex 2
param UsingCSMACAwithRTS.visualizer.dataLinkVisualizerType "\"DataLinkCanvasVisualizer\""
param UsingCSMACAwithRTS.visualizer.energyStorageVisualizer.color "\"green\""
param UsingCSMACAwithRTS.visualizer.energyStorageVisualizer.displayEnergyStorages true
param UsingCSMACAwithRTS.visualizer.energyStorageVisualizer.energyStorageFilter "\"**\""
param UsingCSMACAwithRTS.visualizer.energyStorageVisualizer.height 24
param UsingCSMACAwithRTS.visualizer.energyStorageVisualizer.networkNodeVisualizerModule "\"^.networkNodeVisualizer\""
param UsingCSMACAwithRTS.visualizer.energyStorageVisualizer.placementHint "\"right\""
param UsingCSMACAwithRTS.visualizer.energyStorageVisualizer.placementPriority 0
param UsingCSMACAwithRTS.visualizer.energyStorageVisualizer.spacing 2
param UsingCSMACAwithRTS.visualizer.energyStorageVisualizer.tags "\"\""
param UsingCSMACAwithRTS.visualizer.energyStorageVisualizer.visualizerTargetModule "\"<root>\""
param UsingCSMACAwithRTS.visualizer.energyStorageVisualizer.width 8
param UsingCSMACAwithRTS.visualizer.energyStorageVisualizer.zIndex 10
param UsingCSMACAwithRTS.visualizer.energyStorageVisualizerType "\"EnergyStorageCanvasVisualizer\""
param UsingCSMACAwithRTS.visualizer.ieee80211Visualizer.displayAssociations false
param UsingCSMACAwithRTS.visualizer.ieee80211Visualizer.icon "\"misc/signal_s\""
param UsingCSMACAwithRTS.visualizer.ieee80211Visualizer.iconColor "\"dark\""
param UsingCSMACAwithRTS.visualizer.ieee80211Visualizer.interfaceFilter "\"*\""
param UsingCSMACAwithRTS.visualizer.ieee80211Visualizer.labelColor "\"black\""
param UsingCSMACAwithRTS.visualizer.ieee80211Visualizer.labelFont "\"<default>\""
param UsingCSMACAwithRTS.visualizer.ieee80211Visualizer.networkNodeVisualizerModule "\"^.networkNodeVisualizer\""
param UsingCSMACAwithRTS.visualizer.ieee80211Visualizer.nodeFilter "\"*\""
param UsingCSMACAwithRTS.visualizer.ieee80211Visualizer.placementHint "\"top\""
param UsingCSMACAwithRTS.visualizer.ieee80211Visualizer.placementPriority 0
param UsingCSMACAwithRTS.visualizer.ieee80211Visualizer.subscriptionModule "\"<root>\""
param UsingCSMACAwithRTS.visualizer.ieee80211Visualizer.tags "\"\""
param UsingCSMACAwithRTS.visualizer.ieee80211Visualizer.visualizerTargetModule "\"<root>\""
param UsingCSMACAwithRTS.visualizer.ieee80211Visualizer.zIndex 2
param UsingCSMACAwithRTS.visualizer.ieee80211VisualizerType "\"Ieee80211CanvasVisualizer\""
param UsingCSMACAwithRTS.visualizer.infoVisualizer.backgroundColor "\"white\""
param UsingCSMACAwithRTS.visualizer.infoVisualizer.displayInfos true
param UsingCSMACAwithRTS.visualizer.infoVisualizer.font "\"<default>\""
param UsingCSMACAwithRTS.visualizer.infoVisualizer.format "\"%s\""
param UsingCSMACAwithRTS.visualizer.infoVisualizer.modules "\"\""
param UsingCSMACAwithRTS.visualizer.infoVisualizer.networkNodeVisualizerModule "\"^.networkNodeVisualizer\""
param UsingCSMACAwithRTS.visualizer.infoVisualizer.opacity 1.0
param UsingCSMACAwithRTS.visualizer.infoVisualizer.placementHint "\"top\""
param UsingCSMACAwithRTS.visualizer.infoVisualizer.placementPriority 0
param UsingCSMACAwithRTS.visualizer.infoVisualizer.tags "\"\""
param UsingCSMACAwithRTS.visualizer.infoVisualizer.textColor "\"black\""
param UsingCSMACAwithRTS.visualizer.infoVisualizer.visualizerTargetModule "\"<root>\""
param UsingCSMACAwithRTS.visualizer.infoVisualizer.zIndex 10
param UsingCSMACAwithRTS.visualizer.infoVisualizerType "\"InfoCanvasVisualizer\""
param UsingCSMACAwithRTS.visualizer.interfaceTableVisualizer.backgroundColor "\"white\""
param UsingCSMACAwithRTS.visualizer.interfaceTableVisualizer.displayBackground false
param UsingCSMACAwithRTS.visualizer.interfaceTableVisualizer.displayInterfaceTables false
param UsingCSMACAwithRTS.visualizer.interfaceTableVisualizer.displayWiredInterfacesAtConnections true
param UsingCSMACAwithRTS.visualizer.interfaceTableVisualizer.font "\"<default>\""
param UsingCSMACAwithRTS.visualizer.interfaceTableVisualizer.format "\"%N %\\\\%a/%l\""
param UsingCSMACAwithRTS.visualizer.interfaceTableVisualizer.interfaceFilter "\"not(lo*)\""
param UsingCSMACAwithRTS.visualizer.interfaceTableVisualizer.networkNodeVisualizerModule "\"^.networkNodeVisualizer\""
param UsingCSMACAwithRTS.visualizer.interfaceTableVisualizer.nodeFilter "\"*\""
param UsingCSMACAwithRTS.visualizer.interfaceTableVisualizer.opacity 1.0
param UsingCSMACAwithRTS.visualizer.interfaceTableVisualizer.placementHint "\"top\""
param UsingCSMACAwithRTS.visualizer.interfaceTableVisualizer.placementPriority 0
param UsingCSMACAwithRTS.visualizer.interfaceTableVisualizer.subscriptionModule "\"<root>\""
param UsingCSMACAwithRTS.visualizer.interfaceTableVisualizer.tags "\"\""
param UsingCSMACAwithRTS.visualizer.interfaceTableVisualizer.textColor "\"#005030\""
param UsingCSMACAwithRTS.visualizer.interfaceTableVisualizer.visualizerTargetModule "\"<root>\""
param UsingCSMACAwithRTS.visualizer.interfaceTableVisualizer.zIndex 10
param UsingCSMACAwithRTS.visualizer.interfaceTableVisualizerType "\"InterfaceTableCanvasVisualizer\""
param UsingCSMACAwithRTS.visualizer.linkBreakVisualizer.displayLinkBreaks false
param UsingCSMACAwithRTS.visualizer.linkBreakVisualizer.fadeOutAnimationSpeed 0
param UsingCSMACAwithRTS.visualizer.linkBreakVisualizer.fadeOutMode "\"realTime\""
param UsingCSMACAwithRTS.visualizer.linkBreakVisualizer.fadeOutTime 1s
param UsingCSMACAwithRTS.visualizer.linkBreakVisualizer.icon "\"status/stop\""
param UsingCSMACAwithRTS.visualizer.linkBreakVisualizer.iconTintAmount 0
param UsingCSMACAwithRTS.visualizer.linkBreakVisualizer.iconTintColor "\"\""
param UsingCSMACAwithRTS.visualizer.linkBreakVisualizer.interfaceFilter "\"*\""
param UsingCSMACAwithRTS.visualizer.linkBreakVisualizer.nodeFilter "\"*\""
param UsingCSMACAwithRTS.visualizer.linkBreakVisualizer.packetFilter "\"*\""
param UsingCSMACAwithRTS.visualizer.linkBreakVisualizer.subscriptionModule "\"<root>\""
param UsingCSMACAwithRTS.visualizer.linkBreakVisualizer.tags "\"\""
param UsingCSMACAwithRTS.visualizer.linkBreakVisualizer.visualizerTargetModule "\"<root>\""
param UsingCSMACAwithRTS.visualizer.linkBreakVisualizer.zIndex 2
param UsingCSMACAwithRTS.visualizer.linkBreakVisualizerType "\"LinkBreakCanvasVisualizer\""
param UsingCSMACAwithRTS.visualizer.mediumVisualizer.communicationRangeLineColor "\"blue\""
param UsingCSMACAwithRTS.visualizer.mediumVisualizer.communicationRangeLineStyle "\"solid\""
param UsingCSMACAwithRTS.visualizer.mediumVisualizer.communicationRangeLineWidth 1
param UsingCSMACAwithRTS.visualizer.mediumVisualizer.displayCommunicationHeat false
param UsingCSMACAwithRTS.visualizer.mediumVisualizer.displayCommunicationRanges false
param UsingCSMACAwithRTS.visualizer.mediumVisualizer.displayInterferenceRanges false
param UsingCSMACAwithRTS.visualizer.mediumVisualizer.displayReceptions false
param UsingCSMACAwithRTS.visualizer.mediumVisualizer.displaySignals false
param UsingCSMACAwithRTS.visualizer.mediumVisualizer.displayTransmissions false
param UsingCSMACAwithRTS.visualizer.mediumVisualizer.interfaceFilter "\"*\""
param UsingCSMACAwithRTS.visualizer.mediumVisualizer.interferenceRangeLineColor "\"gray\""
param UsingCSMACAwithRTS.visualizer.mediumVisualizer.interferenceRangeLineStyle "\"solid\""
param UsingCSMACAwithRTS.visualizer.mediumVisualizer.interferenceRangeLineWidth 1
param UsingCSMACAwithRTS.visualizer.mediumVisualizer.mediumModule "\"radioMedium\""
param UsingCSMACAwithRTS.visualizer.mediumVisualizer.networkNodeVisualizerModule "\"^.networkNodeVisualizer\""
param UsingCSMACAwithRTS.visualizer.mediumVisualizer.nodeFilter "\"*\""
param UsingCSMACAwithRTS.visualizer.mediumVisualizer.packetFilter "\"*\""
param UsingCSMACAwithRTS.visualizer.mediumVisualizer.receptionImage "\"misc/reception.png\""
param UsingCSMACAwithRTS.visualizer.mediumVisualizer.receptionPlacementHint "\"topCenter\""
param UsingCSMACAwithRTS.visualizer.mediumVisualizer.receptionPlacementPriority -1
param UsingCSMACAwithRTS.visualizer.mediumVisualizer.signalAnimationSpeedChangeTime 1s
param UsingCSMACAwithRTS.visualizer.mediumVisualizer.signalColor "\"dark\""
param UsingCSMACAwithRTS.visualizer.mediumVisualizer.signalFadingDistance 50m
param UsingCSMACAwithRTS.visualizer.mediumVisualizer.signalFadingFactor 1.2
param UsingCSMACAwithRTS.visualizer.mediumVisualizer.signalOpacity 0.5
param UsingCSMACAwithRTS.visualizer.mediumVisualizer.signalPropagationAdditionalTime 0s
param UsingCSMACAwithRTS.visualizer.mediumVisualizer.signalPropagationAnimationSpeed 0/0
param UsingCSMACAwithRTS.visualizer.mediumVisualizer.signalPropagationAnimationTime 1s
param UsingCSMACAwithRTS.visualizer.mediumVisualizer.signalRingCount 20
param UsingCSMACAwithRTS.visualizer.mediumVisualizer.signalRingSize 50m
param UsingCSMACAwithRTS.visualizer.mediumVisualizer.signalShape "\"ring\""
param UsingCSMACAwithRTS.visualizer.mediumVisualizer.signalTransmissionAnimationSpeed 0/0
param UsingCSMACAwithRTS.visualizer.mediumVisualizer.signalTransmissionAnimationTime 1s
param UsingCSMACAwithRTS.visualizer.mediumVisualizer.signalWaveCount 20
param UsingCSMACAwithRTS.visualizer.mediumVisualizer.signalWaveFadingAnimationSpeedFactor 1
param UsingCSMACAwithRTS.visualizer.mediumVisualizer.signalWaveLength 50m
param UsingCSMACAwithRTS.visualizer.mediumVisualizer.signalWaveWidth 10m
param UsingCSMACAwithRTS.visualizer.mediumVisualizer.tags "\"\""
param UsingCSMACAwithRTS.visualizer.mediumVisualizer.transmissionImage "\"misc/transmission.png\""
param UsingCSMACAwithRTS.visualizer.mediumVisualizer.transmissionPlacementHint "\"topCenter\""
param UsingCSMACAwithRTS.visualizer.mediumVisualizer.transmissionPlacementPriority 1
param UsingCSMACAwithRTS.visualizer.mediumVisualizer.visualizerTargetModule "\"<root>\""
param UsingCSMACAwithRTS.visualizer.mediumVisualizer.zIndex 0
param UsingCSMACAwithRTS.visualizer.mediumVisualizerType "\"MediumCanvasVisualizer\""
param UsingCSMACAwithRTS.visualizer.mobilityVisualizer.animationSpeed 0
param UsingCSMACAwithRTS.visualizer.mobilityVisualizer.displayMovements true
param UsingCSMACAwithRTS.visualizer.mobilityVisualizer.displayMovementTrails false
param UsingCSMACAwithRTS.visualizer.mobilityVisualizer.displayOrientations false
param UsingCSMACAwithRTS.visualizer.mobilityVisualizer.displayVelocities false
param UsingCSMACAwithRTS.visualizer.mobilityVisualizer.moduleFilter "\"**\""
param UsingCSMACAwithRTS.visualizer.mobilityVisualizer.movementTrailLineColor "\"dark\""
param UsingCSMACAwithRTS.visualizer.mobilityVisualizer.movementTrailLineStyle "\"solid\""
param UsingCSMACAwithRTS.visualizer.mobilityVisualizer.movementTrailLineWidth 1
param UsingCSMACAwithRTS.visualizer.mobilityVisualizer.networkNodeVisualizerModule "\"^.networkNodeVisualizer\""
param UsingCSMACAwithRTS.visualizer.mobilityVisualizer.orientationArcSize 0.25
param UsingCSMACAwithRTS.visualizer.mobilityVisualizer.orientationLineColor "\"black\""
param UsingCSMACAwithRTS.visualizer.mobilityVisualizer.orientationLineStyle "\"solid\""
param UsingCSMACAwithRTS.visualizer.mobilityVisualizer.orientationLineWidth 1
param UsingCSMACAwithRTS.visualizer.mobilityVisualizer.subscriptionModule "\"<root>\""
param UsingCSMACAwithRTS.visualizer.mobilityVisualizer.tags "\"\""
param UsingCSMACAwithRTS.visualizer.mobilityVisualizer.trailLength 100
param UsingCSMACAwithRTS.visualizer.mobilityVisualizer.velocityArrowScale 1
param UsingCSMACAwithRTS.visualizer.mobilityVisualizer.velocityLineColor "\"black\""
param UsingCSMACAwithRTS.visualizer.mobilityVisualizer.velocityLineStyle "\"solid\""
param UsingCSMACAwithRTS.visualizer.mobilityVisualizer.velocityLineWidth 1
param UsingCSMACAwithRTS.visualizer.mobilityVisualizer.visualizerTargetModule "\"<root>\""
param UsingCSMACAwithRTS.visualizer.mobilityVisualizer.zIndex 0
param UsingCSMACAwithRTS.visualizer.mobilityVisualizerType "\"MobilityCanvasVisualizer\""
param UsingCSMACAwithRTS.visualizer.networkConnectionVisualizer.displayNetworkConnections true
param UsingCSMACAwithRTS.visualizer.networkConnectionVisualizer.lineColor "\"black\""
param UsingCSMACAwithRTS.visualizer.networkConnectionVisualizer.lineStyle "\"solid\""
param UsingCSMACAwithRTS.visualizer.networkConnectionVisualizer.lineWidth 1
param UsingCSMACAwithRTS.visualizer.networkConnectionVisualizer.nodeFilter "\"\""
param UsingCSMACAwithRTS.visualizer.networkConnectionVisualizer.tags "\"\""
param UsingCSMACAwithRTS.visualizer.networkConnectionVisualizer.visualizerTargetModule "\"<root>\""
param UsingCSMACAwithRTS.visualizer.networkConnectionVisualizer.zIndex 0
param UsingCSMACAwithRTS.visualizer.networkConnectionVisualizerType "\"NetworkConnectionCanvasVisualizer\""
param UsingCSMACAwithRTS.visualizer.networkNodeVisualizer.annotationSpacing 4
param UsingCSMACAwithRTS.visualizer.networkNodeVisualizer.nodeFilter "\"*\""
param UsingCSMACAwithRTS.visualizer.networkNodeVisualizer.placementPenalty 10
param UsingCSMACAwithRTS.visualizer.networkNodeVisualizer.tags "\"\""
param UsingCSMACAwithRTS.visualizer.networkNodeVisualizer.visualizerTargetModule "\"<root>\""
param UsingCSMACAwithRTS.visualizer.networkNodeVisualizer.zIndex 0
param UsingCSMACAwithRTS.visualizer.networkNodeVisualizerType "\"NetworkNodeCanvasVisualizer\""
param UsingCSMACAwithRTS.visualizer.networkRouteVisualizer.displayRoutes false
param UsingCSMACAwithRTS.visualizer.networkRouteVisualizer.fadeOutAnimationSpeed 0
param UsingCSMACAwithRTS.visualizer.networkRouteVisualizer.fadeOutMode "\"realTime\""
param UsingCSMACAwithRTS.visualizer.networkRouteVisualizer.fadeOutTime 1s
param UsingCSMACAwithRTS.visualizer.networkRouteVisualizer.labelColor "\"\""
param UsingCSMACAwithRTS.visualizer.networkRouteVisualizer.labelFont "\"<default>, 8px\""
param UsingCSMACAwithRTS.visualizer.networkRouteVisualizer.labelFormat "\"%n\""
param UsingCSMACAwithRTS.visualizer.networkRouteVisualizer.lineColor "\"dark\""
param UsingCSMACAwithRTS.visualizer.networkRouteVisualizer.lineContactMode "\"rectangular\""
param UsingCSMACAwithRTS.visualizer.networkRouteVisualizer.lineContactSpacing 3
param UsingCSMACAwithRTS.visualizer.networkRouteVisualizer.lineShift 16
param UsingCSMACAwithRTS.visualizer.networkRouteVisualizer.lineShiftMode "\"normal\""
param UsingCSMACAwithRTS.visualizer.networkRouteVisualizer.lineSmooth false
param UsingCSMACAwithRTS.visualizer.networkRouteVisualizer.lineStyle "\"solid\""
param UsingCSMACAwithRTS.visualizer.networkRouteVisualizer.lineWidth 3
param UsingCSMACAwithRTS.visualizer.networkRouteVisualizer.nodeFilter "\"*\""
param UsingCSMACAwithRTS.visualizer.networkRouteVisualizer.packetFilter "\"*\""
param UsingCSMACAwithRTS.visualizer.networkRouteVisualizer.subscriptionModule "\"<root>\""
param UsingCSMACAwithRTS.visualizer.networkRouteVisualizer.tags "\"\""
param UsingCSMACAwithRTS.visualizer.networkRouteVisualizer.visualizerTargetModule "\"<root>\""
param UsingCSMACAwithRTS.visualizer.networkRouteVisualizer.zIndex 3
param UsingCSMACAwithRTS.visualizer.networkRouteVisualizerType "\"NetworkRouteCanvasVisualizer\""
param UsingCSMACAwithRTS.visualizer.obstacleLossVisualizer.displayFaceNormalVectors false
param UsingCSMACAwithRTS.visualizer.obstacleLossVisualizer.displayIntersections false
param UsingCSMACAwithRTS.visualizer.obstacleLossVisualizer.faceNormalLineColor "\"grey\""
param UsingCSMACAwithRTS.visualizer.obstacleLossVisualizer.faceNormalLineStyle "\"solid\""
param UsingCSMACAwithRTS.visualizer.obstacleLossVisualizer.faceNormalLineWidth 1
param UsingCSMACAwithRTS.visualizer.obstacleLossVisualizer.fadeOutAnimationSpeed 0
param UsingCSMACAwithRTS.visualizer.obstacleLossVisualizer.fadeOutMode "\"realTime\""
param UsingCSMACAwithRTS.visualizer.obstacleLossVisualizer.fadeOutTime 1s
param UsingCSMACAwithRTS.visualizer.obstacleLossVisualizer.intersectionLineColor "\"red\""
param UsingCSMACAwithRTS.visualizer.obstacleLossVisualizer.intersectionLineStyle "\"solid\""
param UsingCSMACAwithRTS.visualizer.obstacleLossVisualizer.intersectionLineWidth 1
param UsingCSMACAwithRTS.visualizer.obstacleLossVisualizer.subscriptionModule "\"<root>\""
param UsingCSMACAwithRTS.visualizer.obstacleLossVisualizer.tags "\"\""
param UsingCSMACAwithRTS.visualizer.obstacleLossVisualizer.visualizerTargetModule "\"<root>\""
param UsingCSMACAwithRTS.visualizer.obstacleLossVisualizer.zIndex 0
param UsingCSMACAwithRTS.visualizer.obstacleLossVisualizerType "\"TracingObstacleLossCanvasVisualizer\""
param UsingCSMACAwithRTS.visualizer.packetDropVisualizer.displayPacketDrops false
param UsingCSMACAwithRTS.visualizer.packetDropVisualizer.fadeOutAnimationSpeed 0
param UsingCSMACAwithRTS.visualizer.packetDropVisualizer.fadeOutMode "\"realTime\""
param UsingCSMACAwithRTS.visualizer.packetDropVisualizer.fadeOutTime 1s
param UsingCSMACAwithRTS.visualizer.packetDropVisualizer.icon "\"msg/packet_s\""
param UsingCSMACAwithRTS.visualizer.packetDropVisualizer.iconTintAmount 0
param UsingCSMACAwithRTS.visualizer.packetDropVisualizer.iconTintColor "\"\""
param UsingCSMACAwithRTS.visualizer.packetDropVisualizer.interfaceFilter "\"*\""
param UsingCSMACAwithRTS.visualizer.packetDropVisualizer.labelColor "\"black\""
param UsingCSMACAwithRTS.visualizer.packetDropVisualizer.labelFont "\"<default>\""
param UsingCSMACAwithRTS.visualizer.packetDropVisualizer.nodeFilter "\"*\""
param UsingCSMACAwithRTS.visualizer.packetDropVisualizer.packetFilter "\"*\""
param UsingCSMACAwithRTS.visualizer.packetDropVisualizer.subscriptionModule "\"<root>\""
param UsingCSMACAwithRTS.visualizer.packetDropVisualizer.tags "\"\""
param UsingCSMACAwithRTS.visualizer.packetDropVisualizer.visualizerTargetModule "\"<root>\""
param UsingCSMACAwithRTS.visualizer.packetDropVisualizer.zIndex 10
param UsingCSMACAwithRTS.visualizer.packetDropVisualizerType "\"PacketDropCanvasVisualizer\""
param UsingCSMACAwithRTS.visualizer.physicalEnvironmentVisualizer.displayObjects true
param UsingCSMACAwithRTS.visualizer.physicalEnvironmentVisualizer.physicalEnvironmentModule "\"physicalEnvironment\""
param UsingCSMACAwithRTS.visualizer.physicalEnvironmentVisualizer.tags "\"\""
param UsingCSMACAwithRTS.visualizer.physicalEnvironmentVisualizer.visualizerTargetModule "\"<root>\""
param UsingCSMACAwithRTS.visualizer.physicalEnvironmentVisualizer.zIndex 0
param UsingCSMACAwithRTS.visualizer.physicalEnvironmentVisualizerType "\"PhysicalEnvironmentCanvasVisualizer\""
param UsingCSMACAwithRTS.visualizer.physicalLinkVisualizer.displayLinks false
param UsingCSMACAwithRTS.visualizer.physicalLinkVisualizer.fadeOutAnimationSpeed 0
param UsingCSMACAwithRTS.visualizer.physicalLinkVisualizer.fadeOutMode "\"realTime\""
param UsingCSMACAwithRTS.visualizer.physicalLinkVisualizer.fadeOutTime 1s
param UsingCSMACAwithRTS.visualizer.physicalLinkVisualizer.interfaceFilter "\"*\""
param UsingCSMACAwithRTS.visualizer.physicalLinkVisualizer.labelColor "\"olive\""
param UsingCSMACAwithRTS.visualizer.physicalLinkVisualizer.labelFont "\"<default>, 8px\""
param UsingCSMACAwithRTS.visualizer.physicalLinkVisualizer.labelFormat "\"%n\""
param UsingCSMACAwithRTS.visualizer.physicalLinkVisualizer.lineColor "\"olive\""
param UsingCSMACAwithRTS.visualizer.physicalLinkVisualizer.lineContactMode "\"rectangular\""
param UsingCSMACAwithRTS.visualizer.physicalLinkVisualizer.lineContactSpacing 3
param UsingCSMACAwithRTS.visualizer.physicalLinkVisualizer.lineShift 16
param UsingCSMACAwithRTS.visualizer.physicalLinkVisualizer.lineShiftMode "\"normal\""
param UsingCSMACAwithRTS.visualizer.physicalLinkVisualizer.lineStyle "\"dotted\""
param UsingCSMACAwithRTS.visualizer.physicalLinkVisualizer.lineWidth 3
param UsingCSMACAwithRTS.visualizer.physicalLinkVisualizer.nodeFilter "\"*\""
param UsingCSMACAwithRTS.visualizer.physicalLinkVisualizer.packetFilter "\"*\""
param UsingCSMACAwithRTS.visualizer.physicalLinkVisualizer.subscriptionModule "\"<root>\""
param UsingCSMACAwithRTS.visualizer.physicalLinkVisualizer.tags "\"\""
param UsingCSMACAwithRTS.visualizer.physicalLinkVisualizer.visualizerTargetModule "\"<root>\""
param UsingCSMACAwithRTS.visualizer.physicalLinkVisualizer.zIndex 1
param UsingCSMACAwithRTS.visualizer.physicalLinkVisualizerType "\"PhysicalLinkCanvasVisualizer\""
param UsingCSMACAwithRTS.visualizer.queueVisualizer.color "\"blue\""
param UsingCSMACAwithRTS.visualizer.queueVisualizer.displayQueues false
param UsingCSMACAwithRTS.visualizer.queueVisualizer.height 24
param UsingCSMACAwithRTS.visualizer.queueVisualizer.networkNodeVisualizerModule "\"^.networkNodeVisualizer\""
param UsingCSMACAwithRTS.visualizer.queueVisualizer.placementHint "\"right\""
param UsingCSMACAwithRTS.visualizer.queueVisualizer.placementPriority 0
param UsingCSMACAwithRTS.visualizer.queueVisualizer.queueFilter "\"**\""
param UsingCSMACAwithRTS.visualizer.queueVisualizer.spacing 2
param UsingCSMACAwithRTS.visualizer.queueVisualizer.tags "\"\""
param UsingCSMACAwithRTS.visualizer.queueVisualizer.visualizerTargetModule "\"<root>\""
param UsingCSMACAwithRTS.visualizer.queueVisualizer.width 8
param UsingCSMACAwithRTS.visualizer.queueVisualizer.zIndex 10
param UsingCSMACAwithRTS.visualizer.queueVisualizerType "\"QueueCanvasVisualizer\""
param UsingCSMACAwithRTS.visualizer.radioVisualizer.displayRadioMode true
param UsingCSMACAwithRTS.visualizer.radioVisualizer.displayRadios false
param UsingCSMACAwithRTS.visualizer.radioVisualizer.displayReceptionState true
param UsingCSMACAwithRTS.visualizer.radioVisualizer.displayTransmissionState true
param UsingCSMACAwithRTS.visualizer.radioVisualizer.height 16
param UsingCSMACAwithRTS.visualizer.radioVisualizer.networkNodeVisualizerModule "\"^.networkNodeVisualizer\""
param UsingCSMACAwithRTS.visualizer.radioVisualizer.placementHint "\"bottomRight\""
param UsingCSMACAwithRTS.visualizer.radioVisualizer.placementPriority 0
param UsingCSMACAwithRTS.visualizer.radioVisualizer.radioFilter "\"**\""
param UsingCSMACAwithRTS.visualizer.radioVisualizer.radioModeImages "\"block/process_vs block/timer_vs block/wrx_vs block/wtx_vs block/wrxtx_vs block/cogwheel_vs\""
param UsingCSMACAwithRTS.visualizer.radioVisualizer.receptionStateImages "\"- - misc/reception misc/reception\""
param UsingCSMACAwithRTS.visualizer.radioVisualizer.subscriptionModule "\"<root>\""
param UsingCSMACAwithRTS.visualizer.radioVisualizer.tags "\"\""
param UsingCSMACAwithRTS.visualizer.radioVisualizer.transmissionStateImages "\"- - misc/transmission\""
param UsingCSMACAwithRTS.visualizer.radioVisualizer.visualizerTargetModule "\"<root>\""
param UsingCSMACAwithRTS.visualizer.radioVisualizer.width 16
param UsingCSMACAwithRTS.visualizer.radioVisualizer.zIndex 10
param UsingCSMACAwithRTS.visualizer.radioVisualizerType "\"RadioCanvasVisualizer\""
param UsingCSMACAwithRTS.visualizer.routingTableVisualizer.destinationFilter "\"*\""
param UsingCSMACAwithRTS.visualizer.routingTableVisualizer.displayLabels true
param UsingCSMACAwithRTS.visualizer.routingTableVisualizer.displayRoutesIndividually true
param UsingCSMACAwithRTS.visualizer.routingTableVisualizer.displayRoutingTables false
param UsingCSMACAwithRTS.visualizer.routingTableVisualizer.labelColor "\"black\""
param UsingCSMACAwithRTS.visualizer.routingTableVisualizer.labelFont "\"<default>, 8px\""
param UsingCSMACAwithRTS.visualizer.routingTableVisualizer.labelFormat "\"%d/%m -> %g (%n)\""
param UsingCSMACAwithRTS.visualizer.routingTableVisualizer.lineColor "\"black\""
param UsingCSMACAwithRTS.visualizer.routingTableVisualizer.lineContactMode "\"rectangular\""
param UsingCSMACAwithRTS.visualizer.routingTableVisualizer.lineContactSpacing 3
param UsingCSMACAwithRTS.visualizer.routingTableVisualizer.lineShift 16
param UsingCSMACAwithRTS.visualizer.routingTableVisualizer.lineShiftMode "\"normal\""
param UsingCSMACAwithRTS.visualizer.routingTableVisualizer.lineStyle "\"solid\""
param UsingCSMACAwithRTS.visualizer.routingTableVisualizer.lineWidth 2
param UsingCSMACAwithRTS.visualizer.routingTableVisualizer.nodeFilter "\"*\""
param UsingCSMACAwithRTS.visualizer.routingTableVisualizer.subscriptionModule "\"<root>\""
param UsingCSMACAwithRTS.visualizer.routingTableVisualizer.tags "\"\""
param UsingCSMACAwithRTS.visualizer.routingTableVisualizer.visualizerTargetModule "\"<root>\""
param UsingCSMACAwithRTS.visualizer.routingTableVisualizer.zIndex 0
param UsingCSMACAwithRTS.visualizer.routingTableVisualizerType "\"RoutingTableCanvasVisualizer\""
param UsingCSMACAwithRTS.visualizer.sceneVisualizer.animationSpeed 0
param UsingCSMACAwithRTS.visualizer.sceneVisualizer.axisLength 0m/0
param UsingCSMACAwithRTS.visualizer.sceneVisualizer.descriptionFigure "\"\""
param UsingCSMACAwithRTS.visualizer.sceneVisualizer.networkNodeVisualizerModule "\"^.networkNodeVisualizer\""
param UsingCSMACAwithRTS.visualizer.sceneVisualizer.physicalEnvironmentModule "\"physicalEnvironment\""
param UsingCSMACAwithRTS.visualizer.sceneVisualizer.tags "\"\""
param UsingCSMACAwithRTS.visualizer.sceneVisualizer.viewAngle "\"z\""
param UsingCSMACAwithRTS.visualizer.sceneVisualizer.viewScale "\"1 1\""
param UsingCSMACAwithRTS.visualizer.sceneVisualizer.viewTranslation "\"0 0\""
param UsingCSMACAwithRTS.visualizer.sceneVisualizer.visualizerTargetModule "\"<root>\""
param UsingCSMACAwithRTS.visualizer.sceneVisualizer.zIndex 0
param UsingCSMACAwithRTS.visualizer.sceneVisualizerType "\"SceneCanvasVisualizer\""
param UsingCSMACAwithRTS.visualizer.statisticVisualizer.backgroundColor "\"white\""
param UsingCSMACAwithRTS.visualizer.statisticVisualizer.displayStatistics true
param UsingCSMACAwithRTS.visualizer.statisticVisualizer.font "\"<default>\""
param UsingCSMACAwithRTS.visualizer.statisticVisualizer.format "\"%n: %v %u\""
param UsingCSMACAwithRTS.visualizer.statisticVisualizer.networkNodeVisualizerModule "\"^.networkNodeVisualizer\""
param UsingCSMACAwithRTS.visualizer.statisticVisualizer.opacity 1.0
param UsingCSMACAwithRTS.visualizer.statisticVisualizer.placementHint "\"top\""
param UsingCSMACAwithRTS.visualizer.statisticVisualizer.placementPriority 0
param UsingCSMACAwithRTS.visualizer.statisticVisualizer.signalName "\"\""
param UsingCSMACAwithRTS.visualizer.statisticVisualizer.sourceFilter "\"**\""
param UsingCSMACAwithRTS.visualizer.statisticVisualizer.subscriptionModule "\"<root>\""
param UsingCSMACAwithRTS.visualizer.statisticVisualizer.tags "\"\""
param UsingCSMACAwithRTS.visualizer.statisticVisualizer.textColor "\"black\""
param UsingCSMACAwithRTS.visualizer.statisticVisualizer.unit "\"\""
param UsingCSMACAwithRTS.visualizer.statisticVisualizer.visualizerTargetModule "\"<root>\""
param UsingCSMACAwithRTS.visualizer.statisticVisualizer.zIndex 10
param UsingCSMACAwithRTS.visualizer.statisticVisualizerType "\"StatisticCanvasVisualizer\""
param UsingCSMACAwithRTS.visualizer.transportConnectionVisualizer.destinationNodeFilter "\"*\""
param UsingCSMACAwithRTS.visualizer.transportConnectionVisualizer.destinationPortFilter "\"*\""
param UsingCSMACAwithRTS.visualizer.transportConnectionVisualizer.displayTransportConnections false
param UsingCSMACAwithRTS.visualizer.transportConnectionVisualizer.icon "\"misc/marker_s\""
param UsingCSMACAwithRTS.visualizer.transportConnectionVisualizer.iconColor "\"dark\""
param UsingCSMACAwithRTS.visualizer.transportConnectionVisualizer.labelColor "\"black\""
param UsingCSMACAwithRTS.visualizer.transportConnectionVisualizer.labelFont "\"<default>\""
param UsingCSMACAwithRTS.visualizer.transportConnectionVisualizer.networkNodeVisualizerModule "\"^.networkNodeVisualizer\""
param UsingCSMACAwithRTS.visualizer.transportConnectionVisualizer.placementHint "\"top\""
param UsingCSMACAwithRTS.visualizer.transportConnectionVisualizer.placementPriority 0
param UsingCSMACAwithRTS.visualizer.transportConnectionVisualizer.sourceNodeFilter "\"*\""
param UsingCSMACAwithRTS.visualizer.transportConnectionVisualizer.sourcePortFilter "\"*\""
param UsingCSMACAwithRTS.visualizer.transportConnectionVisualizer.subscriptionModule "\"<root>\""
param UsingCSMACAwithRTS.visualizer.transportConnectionVisualizer.tags "\"\""
param UsingCSMACAwithRTS.visualizer.transportConnectionVisualizer.visualizerTargetModule "\"<root>\""
param UsingCSMACAwithRTS.visualizer.transportConnectionVisualizer.zIndex 4
param UsingCSMACAwithRTS.visualizer.transportConnectionVisualizerType "\"TransportConnectionCanvasVisualizer\""
param UsingCSMACAwithRTS.visualizer.transportRouteVisualizer.displayRoutes false
param UsingCSMACAwithRTS.visualizer.transportRouteVisualizer.fadeOutAnimationSpeed 0
param UsingCSMACAwithRTS.visualizer.transportRouteVisualizer.fadeOutMode "\"realTime\""
param UsingCSMACAwithRTS.visualizer.transportRouteVisualizer.fadeOutTime 1s
param UsingCSMACAwithRTS.visualizer.transportRouteVisualizer.labelColor "\"\""
param UsingCSMACAwithRTS.visualizer.transportRouteVisualizer.labelFont "\"<default>, 8px\""
param UsingCSMACAwithRTS.visualizer.transportRouteVisualizer.labelFormat "\"%n\""
param UsingCSMACAwithRTS.visualizer.transportRouteVisualizer.lineColor "\"dark\""
param UsingCSMACAwithRTS.visualizer.transportRouteVisualizer.lineContactMode "\"rectangular\""
param UsingCSMACAwithRTS.visualizer.transportRouteVisualizer.lineContactSpacing 3
param UsingCSMACAwithRTS.visualizer.transportRouteVisualizer.lineShift 16
param UsingCSMACAwithRTS.visualizer.transportRouteVisualizer.lineShiftMode "\"normal\""
param UsingCSMACAwithRTS.visualizer.transportRouteVisualizer.lineSmooth false
param UsingCSMACAwithRTS.visualizer.transportRouteVisualizer.lineStyle "\"solid\""
param UsingCSMACAwithRTS.visualizer.transportRouteVisualizer.lineWidth 3
param UsingCSMACAwithRTS.visualizer.transportRouteVisualizer.nodeFilter "\"*\""
param UsingCSMACAwithRTS.visualizer.transportRouteVisualizer.packetFilter "\"*\""
param UsingCSMACAwithRTS.visualizer.transportRouteVisualizer.subscriptionModule "\"<root>\""
param UsingCSMACAwithRTS.visualizer.transportRouteVisualizer.tags "\"\""
param UsingCSMACAwithRTS.visualizer.transportRouteVisualizer.visualizerTargetModule "\"<root>\""
param UsingCSMACAwithRTS.visualizer.transportRouteVisualizer.zIndex 4
param UsingCSMACAwithRTS.visualizer.transportRouteVisualizerType "\"TransportRouteCanvasVisualizer\""

vector 0 UsingCSMACAwithRTS.host[0].energyStorage residualEnergyCapacity:vector ETV
attr interpolationmode linear
attr source residualEnergyCapacityChanged
attr title "Residual energy capacity, vector"
vector 1 UsingCSMACAwithRTS.host[0].energyGenerator powerGeneration:vector ETV
attr interpolationmode sample-hold
attr source powerGenerationChanged
attr title "Power generation, vector"
vector 2 UsingCSMACAwithRTS.host[1].energyStorage residualEnergyCapacity:vector ETV
attr interpolationmode linear
attr source residualEnergyCapacityChanged
attr title "Residual energy capacity, vector"
vector 3 UsingCSMACAwithRTS.host[1].energyGenerator powerGeneration:vector ETV
attr interpolationmode sample-hold
attr source powerGenerationChanged
attr title "Power generation, vector"
vector 4 UsingCSMACAwithRTS.host[0].energyStorage powerGeneration:vector ETV
attr interpolationmode sample-hold
attr source powerGenerationChanged
attr title "Power generation, vector"
vector 5 UsingCSMACAwithRTS.host[0].energyStorage powerConsumption:vector ETV
attr interpolationmode sample-hold
attr source powerConsumptionChanged
attr title "Power consumption, vector"
vector 6 UsingCSMACAwithRTS.host[1].energyStorage powerGeneration:vector ETV
attr interpolationmode sample-hold
attr source powerGenerationChanged
attr title "Power generation, vector"
vector 7 UsingCSMACAwithRTS.host[1].energyStorage powerConsumption:vector ETV
attr interpolationmode sample-hold
attr source powerConsumptionChanged
attr title "Power consumption, vector"
vector 8 UsingCSMACAwithRTS.host[0].wlan[0].radio radioMode:vector ETV
attr interpolationmode sample-hold
attr source radioModeChanged
attr title "Radio mode, vector"
vector 9 UsingCSMACAwithRTS.host[0].wlan[0].radio.energyConsumer powerConsumption:vector ETV
attr interpolationmode sample-hold
attr source powerConsumptionChanged
attr title "Power consumption, vector"
vector 10 UsingCSMACAwithRTS.host[0].wlan[0].radio radioChannel:vector ETV
attr interpolationmode sample-hold
attr source radioChannelChanged
attr title "Radio channel, vector"
vector 11 UsingCSMACAwithRTS.host[1].wlan[0].radio radioMode:vector ETV
attr interpolationmode sample-hold
attr source radioModeChanged
attr title "Radio mode, vector"
vector 12 UsingCSMACAwithRTS.host[1].wlan[0].radio.energyConsumer powerConsumption:vector ETV
attr interpolationmode sample-hold
attr source powerConsumptionChanged
attr title "Power consumption, vector"
vector 13 UsingCSMACAwithRTS.host[1].wlan[0].radio radioChannel:vector ETV
attr interpolationmode sample-hold
attr source radioChannelChanged
attr title "Radio channel, vector"
vector 14 UsingCSMACAwithRTS.host[0].wlan[0].radio receptionState:vector ETV
attr interpolationmode sample-hold
attr source receptionStateChanged
attr title "Radio reception state, vector"
vector 15 UsingCSMACAwithRTS.host[1].wlan[0].radio receptionState:vector ETV
attr interpolationmode sample-hold
attr source receptionStateChanged
attr title "Radio reception state, vector"
vector 16 UsingCSMACAwithRTS.host[0].wlan[0].mac.dcf.channelAccess.contention state:vector ETV
attr interpolationmode none
attr source stateChanged
attr title "contention state, vector"
vector 17 UsingCSMACAwithRTS.host[0].wlan[0].mac.hcf.edca.edcaf[0].contention state:vector ETV
attr interpolationmode none
attr source stateChanged
attr title "contention state, vector"
vector 18 UsingCSMACAwithRTS.host[0].wlan[0].mac.hcf.edca.edcaf[1].contention state:vector ETV
attr interpolationmode none
attr source stateChanged
attr title "contention state, vector"
vector 19 UsingCSMACAwithRTS.host[0].wlan[0].mac.hcf.edca.edcaf[2].contention state:vector ETV
attr interpolationmode none
attr source stateChanged
attr title "contention state, vector"
vector 20 UsingCSMACAwithRTS.host[0].wlan[0].mac.hcf.edca.edcaf[3].contention state:vector ETV
attr interpolationmode none
attr source stateChanged
attr title "contention state, vector"
vector 21 UsingCSMACAwithRTS.host[1].wlan[0].mac.dcf.channelAccess.contention state:vector ETV
attr interpolationmode none
attr source stateChanged
attr title "contention state, vector"
vector 22 UsingCSMACAwithRTS.host[1].wlan[0].mac.hcf.edca.edcaf[0].contention state:vector ETV
attr interpolationmode none
attr source stateChanged
attr title "contention state, vector"
vector 23 UsingCSMACAwithRTS.host[1].wlan[0].mac.hcf.edca.edcaf[1].contention state:vector ETV
attr interpolationmode none
attr source stateChanged
attr title "contention state, vector"
vector 24 UsingCSMACAwithRTS.host[1].wlan[0].mac.hcf.edca.edcaf[2].contention state:vector ETV
attr interpolationmode none
attr source stateChanged
attr title "contention state, vector"
vector 25 UsingCSMACAwithRTS.host[1].wlan[0].mac.hcf.edca.edcaf[3].contention state:vector ETV
attr interpolationmode none
attr source stateChanged
attr title "contention state, vector"
vector 26 UsingCSMACAwithRTS.host[1].pingApp[0] pingTxSeq:vector ETV
attr interpolationmode none
attr title "ping tx seq, vector"
vector 27 UsingCSMACAwithRTS.host[1].wlan[0].mac rcvdPkFromHL:vector(packetBytes) ETV
attr interpolationmode none
attr source packetReceivedFromUpper
attr title "packets received from higher layer, vector(packetBytes)"
vector 28 UsingCSMACAwithRTS.host[1].wlan[0].mac sentDownPk:vector(packetBytes) ETV
attr interpolationmode none
attr source packetSentToLower
attr title "packets sent to lower layer, vector(packetBytes)"
vector 29 UsingCSMACAwithRTS.host[1].wlan[0].radio transmissionState:vector ETV
attr interpolationmode sample-hold
attr source transmissionStateChanged
attr title "Radio transmission state, vector"
vector 30 UsingCSMACAwithRTS.host[0].wlan[0].mac rcvdPkFromLL:vector(packetBytes) ETV
attr interpolationmode none
attr source packetReceivedFromLower
attr title "packets received from lower layer, vector(packetBytes)"
vector 31 UsingCSMACAwithRTS.host[0].wlan[0].mac sentDownPk:vector(packetBytes) ETV
attr interpolationmode none
attr source packetSentToLower
attr title "packets sent to lower layer, vector(packetBytes)"
vector 32 UsingCSMACAwithRTS.host[0].wlan[0].radio transmissionState:vector ETV
attr interpolationmode sample-hold
attr source transmissionStateChanged
attr title "Radio transmission state, vector"
vector 33 UsingCSMACAwithRTS.host[1].wlan[0].mac rcvdPkFromLL:vector(packetBytes) ETV
attr interpolationmode none
attr source packetReceivedFromLower
attr title "packets received from lower layer, vector(packetBytes)"
vector 34 UsingCSMACAwithRTS.host[0].wlan[0].mac passedUpPk:vector(packetBytes) ETV
attr interpolationmode none
attr source packetSentToUpper
attr title "packets passed to higher layer, vector(packetBytes)"
vector 35 UsingCSMACAwithRTS.host[0].wlan[0].mac rcvdPkFromHL:vector(packetBytes) ETV
attr interpolationmode none
attr source packetReceivedFromUpper
attr title "packets received from higher layer, vector(packetBytes)"
vector 36 UsingCSMACAwithRTS.host[1].wlan[0].mac passedUpPk:vector(packetBytes) ETV
attr interpolationmode none
attr source packetSentToUpper
attr title "packets passed to higher layer, vector(packetBytes)"
vector 37 UsingCSMACAwithRTS.host[1].pingApp[0] pingRxSeq:vector ETV
attr interpolationmode none
attr title "ping rx seq, vector"
vector 38 UsingCSMACAwithRTS.host[1].pingApp[0] rtt:vector ETV
attr interpolationmode none
attr title "ping round-trip time, vector"
attr unit s
0	0	0	0.029696607603692
0	4	0.1	0.029896607603692
0	6	0.151696198154	0.03
0	7	0.151696198154	0.03
0	7	0.16099613125	0.030018599866192
0	8	0.2	0.030096607603692
0	10	0.3	0.030296607603692
0	12	0.4	0.030496607603692
0	14	0.401696198154	0.0305
0	15	0.401696198154	0.0305
0	15	0.41099613125	0.030518599866192
0	16	0.5	0.030696607603692
0	18	0.6	0.030896607603692
0	20	0.651696198154	0.031
0	21	0.651696198154	0.031
0	21	0.66099613125	0.031018599866192
0	22	0.7	0.031096607603692
0	24	0.715189364972	0.031126986333636
0	34	0.715189366453	0.031126986336598
0	34	0.715189376685	0.031126986357062
0	34	0.715189385129	0.03112698637395
0	34	0.715189393609	0.03112698639091
0	34	0.715189402223	0.031126986408138
0	34	0.71518941194	0.031126986427572
0	34	0.715189420564	0.03112698644482
0	34	0.715189429028	0.031126986461748
0	34	0.715189437632	0.031126986478956
0	34	0.715189446146	0.031126986495984
0	34	0.715189454651	0.031126986512994
0	34	0.715189463269	0.03112698653023
0	34	0.715189471865	0.031126986547422
0	34	0.715189480524	0.03112698656474
0	34	0.71518948904	0.031126986581772
0	35	0.715189494886	0.031126986593464
0	35	0.715189498536	0.031126986571564
0	35	0.715194203475	0.03112695834193
0	35	0.715198562165	0.03112693218979
0	35	0.715202982394	0.031126905668416
0	35	0.715207483706	0.031126878660544
0	35	0.715211923441	0.031126852022134
0	35	0.715216494747	0.031126824594298
0	35	0.715220937637	0.031126797936958
0	37	0.715223370335	0.03112678334077
0	37	0.715223379218	0.031126783287472
0	37	0.715223387473	0.031126783237942
0	37	0.715223395817	0.031126783187878
0	37	0.715223404269	0.031126783137166
0	37	0.715223412785	0.03112678308607
0	37	0.715223421193	0.031126783035622
0	37	0.715223429389	0.031126782986446
0	37	0.715223437762	0.031126782936208
0	37	0.715223446004	0.031126782886756
0	37	0.715223454404	0.031126782836356
0	37	0.715223462941	0.031126782785134
0	37	0.715223471312	0.031126782734908
0	37	0.715223480031	0.031126782682594
0	37	0.715223488243	0.031126782633322
0	38	0.715223494886	0.031126782593464
0	39	0.715233494886	0.031126802593464
0	42	0.715233500813	0.031126802024472
0	42	0.715233510108	0.031126801132152
0	42	0.715233518533	0.031126800323352
0	42	0.715233526925	0.03112679951772
0	42	0.715233535494	0.031126798695096
0	42	0.71523354559	0.03112679772588
0	42	0.71523355411	0.03112679690796
0	42	0.715233562693	0.031126796083992
0	42	0.715233571832	0.031126795206648
0	42	0.715233580832	0.031126794342648
0	42	0.715233589473	0.031126793513112
0	42	0.715233597803	0.031126792713432
0	42	0.715233606267	0.031126791900888
0	42	0.715233614765	0.03112679108508
0	42	0.715233623332	0.031126790262648
0	43	0.715233628317	0.031126789784088
0	43	0.715238372075	0.03112633438332
0	43	0.715242812388	0.031125908113272
0	43	0.71524720803	0.03112548613164
0	43	0.715251780655	0.03112504715964
0	43	0.715256287622	0.031124614490808
0	43	0.715261358093	0.031124127725592
0	43	0.715265700803	0.031123710825432
0	44	0.715267494886	0.031123538593464
0	45	0.715267498453	0.031123538600598
0	45	0.715267506876	0.031123538617444
0	45	0.715267515284	0.03112353863426
0	45	0.715267523589	0.03112353865087
0	45	0.715267532072	0.031123538667836
0	45	0.715267540356	0.031123538684404
0	45	0.715267548817	0.031123538701326
0	45	0.715267557189	0.03112353871807
0	45	0.715267565824	0.03112353873534
0	45	0.715267574169	0.03112353875203
0	45	0.715267582377	0.031123538768446
0	45	0.715267590839	0.03112353878537
0	45	0.715267599212	0.031123538802116
0	45	0.715267607768	0.031123538819228
0	45	0.715267616271	0.031123538836234
0	45	0.71526762445	0.031123538852592
0	46	0.7152676248	0.031123538853292
0	47	0.7152776248	0.031123558853292
0	50	0.715277630808	0.031123558865308
0	50	0.71527763999	0.031123558883672
0	50	0.715277648583	0.031123558900858
0	50	0.715277657286	0.031123558918264
0	50	0.715277665659	0.03112355893501
0	50	0.715277675644	0.03112355895498
0	50	0.715277684437	0.031123558972566
0	50	0.715277693029	0.03112355898975
0	50	0.715277701458	0.031123559006608
0	50	0.715277710304	0.0311235590243
0	50	0.71527771884	0.031123559041372
0	50	0.715277727266	0.031123559058224
0	50	0.715277735895	0.031123559075482
0	50	0.715277744563	0.031123559092818
0	50	0.715277753299	0.03112355911029
0	51	0.715277754713	0.031123559113118
0	51	0.715277758359	0.031123559091242
0	51	0.71528390007	0.031123522240976
0	51	0.715289832331	0.03112348664741
0	51	0.715296035782	0.031123449426704
0	51	0.715301993001	0.03112341368339
0	51	0.715308064706	0.03112337725316
0	51	0.715314312678	0.031123339765328
0	51	0.715320292547	0.031123303886114
0	52	0.7153236248	0.031123283892596
0	53	0.715323628283	0.031123283871698
0	53	0.7153236368	0.031123283820596
0	53	0.715323645219	0.031123283770082
0	53	0.715323654991	0.03112328371145
0	53	0.715323663443	0.031123283660738
0	53	0.715323671919	0.031123283609882
0	53	0.715323680587	0.031123283557874
0	53	0.715323689196	0.03112328350622
0	53	0.715323697679	0.031123283455322
0	53	0.715323705949	0.031123283405702
0	53	0.715323714409	0.031123283354942
0	53	0.715323722785	0.031123283304686
0	53	0.715323731601	0.03112328325179
0	53	0.715323740006	0.03112328320136
0	53	0.715323748398	0.031123283151008
0	54	0.715323754713	0.031123283113118
0	61	0.715333754713	0.031123303113118
0	64	0.715333760384	0.031123302568702
0	64	0.715333769863	0.031123301658718
0	64	0.715333778157	0.031123300862494
0	64	0.715333786891	0.03112330002403
0	64	0.715333795576	0.03112329919027
0	64	0.715333803987	0.031123298382814
0	64	0.715333812627	0.031123297553374
0	64	0.715333821288	0.031123296721918
0	64	0.715333829792	0.031123295905534
0	64	0.715333838376	0.03112329508147
0	64	0.715333846949	0.031123294258462
0	64	0.715333855786	0.03112329341011
0	64	0.715333864359	0.031123292587102
0	64	0.715333872793	0.031123291777438
0	64	0.715333881393	0.031123290951838
0	65	0.715333888124	0.031123290305662
0	65	0.715368244203	0.031119992122078
0	65	0.715400340967	0.031116910832734
0	65	0.715432882205	0.031113786873886
0	65	0.715466037649	0.031110603951262
0	65	0.715499162827	0.031107423934174
0	65	0.7155312057	0.031104347818366
0	66	0.715565156175	0.031101088572766
0	68	0.715581754713	0.031099495113118
0	70	0.715581760296	0.031099495124284
0	70	0.715581768922	0.031099495141536
0	70	0.715581777631	0.031099495158954
0	70	0.715581786083	0.031099495175858
0	70	0.715581794299	0.03109949519229
0	70	0.715581802789	0.03109949520927
0	70	0.715581811387	0.031099495226466
0	70	0.71558181986	0.031099495243412
0	70	0.715581828469	0.03109949526063
0	70	0.715581836897	0.031099495277486
0	70	0.715581845538	0.031099495294768
0	70	0.715581854054	0.0310994953118
0	70	0.715581862324	0.03109949532834
0	70	0.715581872022	0.031099495347736
0	70	0.715581880525	0.031099495364742
0	71	0.715581884625	0.031099495372942
0	72	0.716151754713	0.031100635113118
0	77	0.716151760262	0.031100634580414
0	77	0.716151769443	0.031100633699038
0	77	0.716151778194	0.031100632858942
0	77	0.716151786792	0.031100632033534
0	77	0.716151795544	0.031100631193342
0	77	0.716151803889	0.031100630392222
0	77	0.71615181239	0.031100629576126
0	77	0.716151822097	0.031100628644254
0	77	0.716151830419	0.031100627845342
0	77	0.716151839401	0.03110062698307
0	77	0.716151848033	0.031100626154398
0	77	0.716151856442	0.031100625347134
0	77	0.716151865169	0.031100624509342
0	77	0.716151873803	0.031100623680478
0	77	0.716151882234	0.031100622871102
0	78	0.716151888325	0.031100622286366
0	78	0.716156516355	0.031100177995486
0	78	0.716160995871	0.03109974796195
0	78	0.716165648423	0.031099301316958
0	78	0.716170118493	0.031098872190238
0	78	0.71617468597	0.031098433712446
0	78	0.716179212509	0.031097999164702
0	78	0.716183634183	0.031097574683998
0	79	0.716185754713	0.031097371113118
0	80	0.716185760001	0.031097371123694
0	80	0.716185769314	0.03109737114232
0	80	0.716185777745	0.031097371159182
0	80	0.716185786475	0.031097371176642
0	80	0.716185794828	0.031097371193348
0	80	0.716185803453	0.031097371210598
0	80	0.716185811937	0.031097371227566
0	80	0.716185821438	0.031097371246568
0	80	0.716185829775	0.031097371263242
0	80	0.716185838422	0.031097371280536
0	80	0.716185846796	0.031097371297284
0	80	0.716185855346	0.031097371314384
0	80	0.716185863744	0.03109737133118
0	80	0.716185871984	0.03109737134766
0	80	0.716185880392	0.031097371364476
0	81	0.716185884612	0.031097371372916
0	82	0.716195884612	0.031097391372916
0	85	0.716195890447	0.031097391384586
0	85	0.71619589987	0.031097391403432
0	85	0.7161959083	0.031097391420292
0	85	0.716195916992	0.031097391437676
0	85	0.716195925657	0.031097391455006
0	85	0.716195934177	0.031097391472046
0	85	0.716195942774	0.03109739148924
0	85	0.716195951394	0.03109739150648
0	85	0.71619595974	0.031097391523172
0	85	0.716195968322	0.031097391540336
0	85	0.716195977008	0.031097391557708
0	85	0.716195985473	0.031097391574638
0	85	0.716195994311	0.031097391592314
0	85	0.71619600304	0.031097391609772
0	85	0.71619601165	0.031097391626992
0	86	0.71619601451	0.031097391632712
0	86	0.716196018163	0.031097391610794
0	86	0.716201430669	0.031097359135758
0	86	0.716205663789	0.031097333737038
0	86	0.716210176769	0.031097306659158
0	86	0.716214754183	0.031097279194674
0	86	0.716219212269	0.031097252446158
0	86	0.716223744658	0.031097225251824
0	86	0.716228237036	0.031097198297556
0	88	0.716229890041	0.031097188379526
0	88	0.716229899092	0.03109718832522
0	88	0.716229907468	0.031097188274964
0	88	0.716229917202	0.03109718821656
0	88	0.71622992568	0.031097188165692
0	88	0.716229933989	0.031097188115838
0	88	0.716229942868	0.031097188062564
0	88	0.716229951436	0.031097188011156
0	88	0.716229959682	0.03109718796168
0	88	0.716229968227	0.03109718791041
0	88	0.716229976702	0.03109718785956
0	88	0.71622998538	0.031097187807492
0	88	0.716229993885	0.031097187756462
0	88	0.716230002154	0.031097187706848
0	88	0.716230010736	0.031097187655356
0	89	0.71623001451	0.031097187632712
0	90	0.71624001451	0.031097207632712
0	93	0.716240020672	0.03109720704116
0	93	0.71624002996	0.031097206149512
0	93	0.716240038627	0.03109720531748
0	93	0.716240048634	0.031097204356808
0	93	0.716240057072	0.03109720354676
0	93	0.716240065538	0.031097202734024
0	93	0.71624007419	0.031097201903432
0	93	0.716240082918	0.031097201065544
0	93	0.716240091314	0.031097200259528
0	93	0.716240099889	0.031097199436328
0	93	0.716240108291	0.031097198629736
0	93	0.716240116917	0.03109719780164
0	93	0.716240125506	0.031097196977096
0	93	0.716240134182	0.0310971961442
0	93	0.716240142999	0.031097195297768
0	94	0.716240148048	0.031097194813064
0	94	0.716246489674	0.031096586016968
[...]
5	38	0.715223494886	0.002
5	38	0.715223494886	0.002
5	41	0.715233494886	0
5	41	0.715233494886	0
5	41	0.715233494886	0.002
5	42	0.715233494886	0
5	42	0.715233494886	0.1
5	44	0.715267494886	0.002
5	44	0.715267494886	0.002
5	45	0.715267494886	0
5	45	0.715267494886	0.002
5	45	0.715267494886	0.002
5	51	0.715277754713	0
5	51	0.715277754713	0.01
5	54	0.715323754713	0.002
5	54	0.715323754713	0.002
5	63	0.715333754713	0
5	63	0.715333754713	0
5	63	0.715333754713	0.002
5	64	0.715333754713	0
5	64	0.715333754713	0.1
5	69	0.715581754713	0.002
5	69	0.715581754713	0.002
5	70	0.715581754713	0
5	70	0.715581754713	0.002
5	70	0.715581754713	0.002
5	76	0.716151754713	0
5	76	0.716151754713	0
5	76	0.716151754713	0.002
5	77	0.716151754713	0
5	77	0.716151754713	0.1
5	79	0.716185754713	0.002
5	79	0.716185754713	0.002
5	80	0.716185754713	0
5	80	0.716185754713	0.002
5	80	0.716185754713	0.002
5	86	0.71619601451	0
5	86	0.71619601451	0.01
5	89	0.71623001451	0.002
5	89	0.71623001451	0.002
5	92	0.71624001451	0
5	92	0.71624001451	0
5	92	0.71624001451	0.002
5	93	0.71624001451	0
5	93	0.71624001451	0.1
5	95	0.71628601451	0.002
5	95	0.71628601451	0.002
5	96	0.71628601451	0
5	96	0.71628601451	0.002
5	96	0.71628601451	0.002
5	106	0.716296274305	0
5	106	0.716296274305	0.01
5	112	0.716544274305	0.002
5	112	0.716544274305	0.002
5	160	1.715189448712	0
5	160	1.715189448712	0.01
5	163	1.715223448712	0.002
5	163	1.715223448712	0.002
5	166	1.715233448712	0
5	166	1.715233448712	0
5	166	1.715233448712	0.002
5	167	1.715233448712	0
5	167	1.715233448712	0.1
5	169	1.715267448712	0.002
5	169	1.715267448712	0.002
5	170	1.715267448712	0
5	170	1.715267448712	0.002
5	170	1.715267448712	0.002
5	176	1.715277616186	0
5	176	1.715277616186	0.01
5	179	1.715323616186	0.002
5	179	1.715323616186	0.002
5	188	1.715333616186	0
5	188	1.715333616186	0
5	188	1.715333616186	0.002
5	189	1.715333616186	0
5	189	1.715333616186	0.1
5	194	1.715581616186	0.002
5	194	1.715581616186	0.002
5	195	1.715581616186	0
5	195	1.715581616186	0.002
5	195	1.715581616186	0.002
5	201	1.715811616186	0
5	201	1.715811616186	0
5	201	1.715811616186	0.002
5	202	1.715811616186	0
5	202	1.715811616186	0.1
5	204	1.715845616186	0.002
5	204	1.715845616186	0.002
5	205	1.715845616186	0
5	205	1.715845616186	0.002
5	205	1.715845616186	0.002
6	0	0	0.004
7	0	0	0
7	0	0	0
7	0	0	0
7	0	0	0.002
7	33	0.715189364972	0
7	33	0.715189364972	0
7	33	0.715189364972	0.002
7	34	0.715189364972	0
7	34	0.715189364972	0.1
7	36	0.715223364972	0.002
7	36	0.715223364972	0.002
7	37	0.715223364972	0
7	37	0.715223364972	0.002
7	37	0.715223364972	0.002
7	43	0.7152336248	0
7	43	0.7152336248	0.01
7	46	0.7152676248	0.002
7	46	0.7152676248	0.002
7	49	0.7152776248	0
7	49	0.7152776248	0
7	49	0.7152776248	0.002
7	50	0.7152776248	0
7	50	0.7152776248	0.1
7	52	0.7153236248	0.002
7	52	0.7153236248	0.002
7	53	0.7153236248	0
7	53	0.7153236248	0.002
7	53	0.7153236248	0.002
7	65	0.715333884625	0
7	65	0.715333884625	0.01
7	71	0.715581884625	0.002
7	71	0.715581884625	0.002
7	78	0.716151884612	0
7	78	0.716151884612	0.01
7	81	0.716185884612	0.002
7	81	0.716185884612	0.002
7	84	0.716195884612	0
7	84	0.716195884612	0
7	84	0.716195884612	0.002
7	85	0.716195884612	0
7	85	0.716195884612	0.1
7	87	0.716229884612	0.002
7	87	0.716229884612	0.002
7	88	0.716229884612	0
7	88	0.716229884612	0.002
7	88	0.716229884612	0.002
7	94	0.716240144408	0
7	94	0.716240144408	0.01
7	97	0.716286144408	0.002
7	97	0.716286144408	0.002
7	104	0.716296144408	0
7	104	0.716296144408	0
7	104	0.716296144408	0.002
7	105	0.716296144408	0
7	105	0.716296144408	0.1
7	110	0.716544144408	0.002
7	110	0.716544144408	0.002
7	111	0.716544144408	0
7	111	0.716544144408	0.002
7	111	0.716544144408	0.002
7	158	1.715189364972	0
7	158	1.715189364972	0
7	158	1.715189364972	0.002
7	159	1.715189364972	0
7	159	1.715189364972	0.1
7	161	1.715223364972	0.002
7	161	1.715223364972	0.002
7	162	1.715223364972	0
7	162	1.715223364972	0.002
7	162	1.715223364972	0.002
7	168	1.71523353245	0
7	168	1.71523353245	0.01
7	171	1.71526753245	0.002
7	171	1.71526753245	0.002
7	174	1.71527753245	0
7	174	1.71527753245	0
7	174	1.71527753245	0.002
7	175	1.71527753245	0
7	175	1.71527753245	0.1
7	177	1.71532353245	0.002
7	177	1.71532353245	0.002
7	178	1.71532353245	0
7	178	1.71532353245	0.002
7	178	1.71532353245	0.002
7	190	1.715333699919	0
7	190	1.715333699919	0.01
7	196	1.715581699919	0.002
7	196	1.715581699919	0.002
7	203	1.715811699896	0
7	203	1.715811699896	0.01
7	206	1.715845699896	0.002
7	206	1.715845699896	0.002
7	209	1.715855699896	0
7	209	1.715855699896	0
7	209	1.715855699896	0.002
7	210	1.715855699896	0
7	210	1.715855699896	0.1
8	0	0	0
8	0	0	2
8	41	0.715233494886	3
8	45	0.715267494886	2
8	63	0.715333754713	3
8	70	0.715581754713	2
8	76	0.716151754713	3
8	80	0.716185754713	2
8	92	0.71624001451	3
8	96	0.71628601451	2
8	166	1.715233448712	3
8	170	1.715267448712	2
8	188	1.715333616186	3
8	195	1.715581616186	2
8	201	1.715811616186	3
8	205	1.715845616186	2
9	0	0	0
9	0	0	0
9	0	0	0.002
9	35	0.715189494886	0
9	35	0.715189494886	0.01
9	38	0.715223494886	0.002
9	38	0.715223494886	0.002
9	41	0.715233494886	0
9	41	0.715233494886	0
9	41	0.715233494886	0.002
9	42	0.715233494886	0
9	42	0.715233494886	0.1
9	44	0.715267494886	0.002
9	44	0.715267494886	0.002
9	45	0.715267494886	0
9	45	0.715267494886	0.002
9	45	0.715267494886	0.002
9	51	0.715277754713	0
9	51	0.715277754713	0.01
9	54	0.715323754713	0.002
9	54	0.715323754713	0.002
9	63	0.715333754713	0
9	63	0.715333754713	0
9	63	0.715333754713	0.002
9	64	0.715333754713	0
9	64	0.715333754713	0.1
9	69	0.715581754713	0.002
9	69	0.715581754713	0.002
9	70	0.715581754713	0
9	70	0.715581754713	0.002
9	70	0.715581754713	0.002
9	76	0.716151754713	0
9	76	0.716151754713	0
9	76	0.716151754713	0.002
9	77	0.716151754713	0
9	77	0.716151754713	0.1
9	79	0.716185754713	0.002
9	79	0.716185754713	0.002
9	80	0.716185754713	0
9	80	0.716185754713	0.002
9	80	0.716185754713	0.002
9	86	0.71619601451	0
9	86	0.71619601451	0.01
9	89	0.71623001451	0.002
9	89	0.71623001451	0.002
9	92	0.71624001451	0
9	92	0.71624001451	0
9	92	0.71624001451	0.002
9	93	0.71624001451	0
9	93	0.71624001451	0.1
9	95	0.71628601451	0.002
9	95	0.71628601451	0.002
9	96	0.71628601451	0
9	96	0.71628601451	0.002
9	96	0.71628601451	0.002
9	106	0.716296274305	0
9	106	0.716296274305	0.01
9	112	0.716544274305	0.002
9	112	0.716544274305	0.002
9	160	1.715189448712	0
9	160	1.715189448712	0.01
9	163	1.715223448712	0.002
9	163	1.715223448712	0.002
9	166	1.715233448712	0
9	166	1.715233448712	0
9	166	1.715233448712	0.002
9	167	1.715233448712	0
9	167	1.715233448712	0.1
9	169	1.715267448712	0.002
9	169	1.715267448712	0.002
9	170	1.715267448712	0
9	170	1.715267448712	0.002
9	170	1.715267448712	0.002
9	176	1.715277616186	0
9	176	1.715277616186	0.01
9	179	1.715323616186	0.002
9	179	1.715323616186	0.002
9	188	1.715333616186	0
9	188	1.715333616186	0
9	188	1.715333616186	0.002
9	189	1.715333616186	0
9	189	1.715333616186	0.1
9	194	1.715581616186	0.002
9	194	1.715581616186	0.002
9	195	1.715581616186	0
9	195	1.715581616186	0.002
9	195	1.715581616186	0.002
9	201	1.715811616186	0
9	201	1.715811616186	0
9	201	1.715811616186	0.002
9	202	1.715811616186	0
9	202	1.715811616186	0.1
9	204	1.715845616186	0.002
9	204	1.715845616186	0.002
9	205	1.715845616186	0
9	205	1.715845616186	0.002
9	205	1.715845616186	0.002
10	0	0	0
11	0	0	0
11	0	0	2
11	33	0.715189364972	3
11	37	0.715223364972	2
11	49	0.7152776248	3
11	53	0.7153236248	2
11	84	0.716195884612	3
11	88	0.716229884612	2
11	104	0.716296144408	3
11	111	0.716544144408	2
11	158	1.715189364972	3
11	162	1.715223364972	2
11	174	1.71527753245	3
11	178	1.71532353245	2
11	209	1.715855699896	3
12	0	0	0
12	0	0	0
12	0	0	0.002
12	33	0.715189364972	0
12	33	0.715189364972	0
12	33	0.715189364972	0.002
12	34	0.715189364972	0
12	34	0.715189364972	0.1
12	36	0.715223364972	0.002
12	36	0.715223364972	0.002
12	37	0.715223364972	0
12	37	0.715223364972	0.002
12	37	0.715223364972	0.002
12	43	0.7152336248	0
12	43	0.7152336248	0.01
12	46	0.7152676248	0.002
12	46	0.7152676248	0.002
12	49	0.7152776248	0
12	49	0.7152776248	0
12	49	0.7152776248	0.002
12	50	0.7152776248	0
12	50	0.7152776248	0.1
12	52	0.7153236248	0.002
12	52	0.7153236248	0.002
12	53	0.7153236248	0
12	53	0.7153236248	0.002
12	53	0.7153236248	0.002
12	65	0.715333884625	0
12	65	0.715333884625	0.01
12	71	0.715581884625	0.002
12	71	0.715581884625	0.002
12	78	0.716151884612	0
12	78	0.716151884612	0.01
12	81	0.716185884612	0.002
12	81	0.716185884612	0.002
12	84	0.716195884612	0
12	84	0.716195884612	0
12	84	0.716195884612	0.002
12	85	0.716195884612	0
12	85	0.716195884612	0.1
12	87	0.716229884612	0.002
12	87	0.716229884612	0.002
12	88	0.716229884612	0
12	88	0.716229884612	0.002
12	88	0.716229884612	0.002
12	94	0.716240144408	0
12	94	0.716240144408	0.01
12	97	0.716286144408	0.002
12	97	0.716286144408	0.002
12	104	0.716296144408	0
12	104	0.716296144408	0
12	104	0.716296144408	0.002
12	105	0.716296144408	0
12	105	0.716296144408	0.1
12	110	0.716544144408	0.002
12	110	0.716544144408	0.002
12	111	0.716544144408	0
12	111	0.716544144408	0.002
12	111	0.716544144408	0.002
12	158	1.715189364972	0
12	158	1.715189364972	0
12	158	1.715189364972	0.002
12	159	1.715189364972	0
12	159	1.715189364972	0.1
12	161	1.715223364972	0.002
12	161	1.715223364972	0.002
12	162	1.715223364972	0
12	162	1.715223364972	0.002
12	162	1.715223364972	0.002
12	168	1.71523353245	0
12	168	1.71523353245	0.01
12	171	1.71526753245	0.002
12	171	1.71526753245	0.002
12	174	1.71527753245	0
12	174	1.71527753245	0
12	174	1.71527753245	0.002
12	175	1.71527753245	0
12	175	1.71527753245	0.1
12	177	1.71532353245	0.002
12	177	1.71532353245	0.002
12	178	1.71532353245	0
12	178	1.71532353245	0.002
12	178	1.71532353245	0.002
12	190	1.715333699919	0
12	190	1.715333699919	0.01
12	196	1.715581699919	0.002
12	196	1.715581699919	0.002
12	203	1.715811699896	0
12	203	1.715811699896	0.01
12	206	1.715845699896	0.002
12	206	1.715845699896	0.002
12	209	1.715855699896	0
12	209	1.715855699896	0
12	209	1.715855699896	0.002
12	210	1.715855699896	0
12	210	1.715855699896	0.1
13	0	0	0
14	0	0	1
14	35	0.715189494886	3
14	38	0.715223494886	1
14	41	0.715233494886	0
14	45	0.715267494886	1
14	51	0.715277754713	3
14	54	0.715323754713	1
14	63	0.715333754713	0
14	70	0.715581754713	1
14	76	0.716151754713	0
14	80	0.716185754713	1
14	86	0.71619601451	3
14	89	0.71623001451	1
14	92	0.71624001451	0
14	96	0.71628601451	1
14	106	0.716296274305	3
14	112	0.716544274305	1
14	160	1.715189448712	3
14	163	1.715223448712	1
14	166	1.715233448712	0
14	170	1.715267448712	1
14	176	1.715277616186	3
14	179	1.715323616186	1
14	188	1.715333616186	0
14	195	1.715581616186	1
14	201	1.715811616186	0
14	205	1.715845616186	1
15	0	0	1
15	33	0.715189364972	0
15	37	0.715223364972	1
15	43	0.7152336248	3
15	46	0.7152676248	1
15	49	0.7152776248	0
15	53	0.7153236248	1
15	65	0.715333884625	3
15	71	0.715581884625	1
15	78	0.716151884612	3
15	81	0.716185884612	1
15	84	0.716195884612	0
15	88	0.716229884612	1
15	94	0.716240144408	3
15	97	0.716286144408	1
15	104	0.716296144408	0
15	111	0.716544144408	1
15	158	1.715189364972	0
15	162	1.715223364972	1
15	168	1.71523353245	3
15	171	1.71526753245	1
15	174	1.71527753245	0
15	178	1.71532353245	1
15	190	1.715333699919	3
15	196	1.715581699919	1
15	203	1.715811699896	3
15	206	1.715845699896	1
15	209	1.715855699896	0
16	0	0	0
16	0	0	0
16	35	0.715189494886	0
16	35	0.715189494886	0
16	38	0.715223494886	0
16	38	0.715223494886	0
16	41	0.715233494886	0
16	41	0.715233494886	0
16	61	0.715323754713	0
16	61	0.715323754713	1
16	70	0.715581754713	1
16	70	0.715581754713	2
16	73	0.716151754713	2
16	73	0.716151754713	0
16	76	0.716151754713	0
16	76	0.716151754713	0
16	112	0.716544274305	0
16	112	0.716544274305	0
16	160	1.715189448712	0
16	160	1.715189448712	0
16	163	1.715223448712	0
16	163	1.715223448712	0
16	166	1.715233448712	0
16	166	1.715233448712	0
16	186	1.715323616186	0
16	186	1.715323616186	1
16	195	1.715581616186	1
16	195	1.715581616186	2
16	198	1.715811616186	2
16	198	1.715811616186	0
16	201	1.715811616186	0
16	201	1.715811616186	0
17	0	0	0
17	0	0	0
17	35	0.715189494886	0
17	35	0.715189494886	0
17	38	0.715223494886	0
17	38	0.715223494886	0
17	41	0.715233494886	0
17	41	0.715233494886	0
17	70	0.715581754713	0
17	70	0.715581754713	0
17	76	0.716151754713	0
17	76	0.716151754713	0
17	112	0.716544274305	0
17	112	0.716544274305	0
17	160	1.715189448712	0
17	160	1.715189448712	0
17	163	1.715223448712	0
17	163	1.715223448712	0
17	166	1.715233448712	0
17	166	1.715233448712	0
17	195	1.715581616186	0
17	195	1.715581616186	0
17	201	1.715811616186	0
17	201	1.715811616186	0
18	0	0	0
18	0	0	0
18	35	0.715189494886	0
18	35	0.715189494886	0
18	38	0.715223494886	0
18	38	0.715223494886	0
18	41	0.715233494886	0
18	41	0.715233494886	0
18	70	0.715581754713	0
18	70	0.715581754713	0
18	76	0.716151754713	0
18	76	0.716151754713	0
18	112	0.716544274305	0
18	112	0.716544274305	0
18	160	1.715189448712	0
18	160	1.715189448712	0
18	163	1.715223448712	0
18	163	1.715223448712	0
18	166	1.715233448712	0
18	166	1.715233448712	0
18	195	1.715581616186	0
18	195	1.715581616186	0
18	201	1.715811616186	0
18	201	1.715811616186	0
19	0	0	0
19	0	0	0
19	35	0.715189494886	0
19	35	0.715189494886	0
19	38	0.715223494886	0
19	38	0.715223494886	0
19	41	0.715233494886	0
19	41	0.715233494886	0
19	70	0.715581754713	0
19	70	0.715581754713	0
19	76	0.716151754713	0
19	76	0.716151754713	0
19	112	0.716544274305	0
19	112	0.716544274305	0
19	160	1.715189448712	0
19	160	1.715189448712	0
19	163	1.715223448712	0
19	163	1.715223448712	0
19	166	1.715233448712	0
19	166	1.715233448712	0
19	195	1.715581616186	0
19	195	1.715581616186	0
19	201	1.715811616186	0
19	201	1.715811616186	0
20	0	0	0
20	0	0	0
20	35	0.715189494886	0
20	35	0.715189494886	0
20	38	0.715223494886	0
20	38	0.715223494886	0
20	41	0.715233494886	0
20	41	0.715233494886	0
20	70	0.715581754713	0
20	70	0.715581754713	0
20	76	0.716151754713	0
20	76	0.716151754713	0
20	112	0.716544274305	0
20	112	0.716544274305	0
20	160	1.715189448712	0
20	160	1.715189448712	0
20	163	1.715223448712	0
20	163	1.715223448712	0
20	166	1.715233448712	0
20	166	1.715233448712	0
20	195	1.715581616186	0
20	195	1.715581616186	0
20	201	1.715811616186	0
20	201	1.715811616186	0
21	0	0	0
21	0	0	0
21	29	0.715189364972	0
21	29	0.715189364972	2
21	30	0.715189364972	2
21	30	0.715189364972	0
21	33	0.715189364972	0
21	33	0.715189364972	0
21	71	0.715581884625	0
21	71	0.715581884625	0
21	78	0.716151884612	0
21	78	0.716151884612	0
21	81	0.716185884612	0
21	81	0.716185884612	0
21	84	0.716195884612	0
21	84	0.716195884612	0
21	111	0.716544144408	0
21	111	0.716544144408	0
21	154	1.715189364972	0
21	154	1.715189364972	2
21	155	1.715189364972	2
21	155	1.715189364972	0
21	158	1.715189364972	0
21	158	1.715189364972	0
21	196	1.715581699919	0
21	196	1.715581699919	0
21	203	1.715811699896	0
21	203	1.715811699896	0
21	206	1.715845699896	0
21	206	1.715845699896	0
21	209	1.715855699896	0
21	209	1.715855699896	0
22	0	0	0
22	0	0	0
22	33	0.715189364972	0
22	33	0.715189364972	0
22	71	0.715581884625	0
22	71	0.715581884625	0
22	78	0.716151884612	0
22	78	0.716151884612	0
22	81	0.716185884612	0
22	81	0.716185884612	0
22	84	0.716195884612	0
22	84	0.716195884612	0
22	111	0.716544144408	0
22	111	0.716544144408	0
22	158	1.715189364972	0
22	158	1.715189364972	0
22	196	1.715581699919	0
22	196	1.715581699919	0
22	203	1.715811699896	0
22	203	1.715811699896	0
22	206	1.715845699896	0
22	206	1.715845699896	0
22	209	1.715855699896	0
22	209	1.715855699896	0
23	0	0	0
23	0	0	0
23	33	0.715189364972	0
23	33	0.715189364972	0
23	71	0.715581884625	0
23	71	0.715581884625	0
23	78	0.716151884612	0
23	78	0.716151884612	0
23	81	0.716185884612	0
23	81	0.716185884612	0
23	84	0.716195884612	0
23	84	0.716195884612	0
23	111	0.716544144408	0
23	111	0.716544144408	0
23	158	1.715189364972	0
23	158	1.715189364972	0
23	196	1.715581699919	0
23	196	1.715581699919	0
23	203	1.715811699896	0
23	203	1.715811699896	0
23	206	1.715845699896	0
23	206	1.715845699896	0
23	209	1.715855699896	0
23	209	1.715855699896	0
24	0	0	0
24	0	0	0
24	33	0.715189364972	0
24	33	0.715189364972	0
24	71	0.715581884625	0
24	71	0.715581884625	0
24	78	0.716151884612	0
24	78	0.716151884612	0
24	81	0.716185884612	0
24	81	0.716185884612	0
24	84	0.716195884612	0
24	84	0.716195884612	0
24	111	0.716544144408	0
24	111	0.716544144408	0
24	158	1.715189364972	0
24	158	1.715189364972	0
24	196	1.715581699919	0
24	196	1.715581699919	0
24	203	1.715811699896	0
24	203	1.715811699896	0
24	206	1.715845699896	0
24	206	1.715845699896	0
24	209	1.715855699896	0
24	209	1.715855699896	0
25	0	0	0
25	0	0	0
25	33	0.715189364972	0
25	33	0.715189364972	0
25	71	0.715581884625	0
25	71	0.715581884625	0
25	78	0.716151884612	0
25	78	0.716151884612	0
25	81	0.716185884612	0
25	81	0.716185884612	0
25	84	0.716195884612	0
25	84	0.716195884612	0
25	111	0.716544144408	0
25	111	0.716544144408	0
25	158	1.715189364972	0
25	158	1.715189364972	0
25	196	1.715581699919	0
25	196	1.715581699919	0
25	203	1.715811699896	0
25	203	1.715811699896	0
25	206	1.715845699896	0
25	206	1.715845699896	0
25	209	1.715855699896	0
25	209	1.715855699896	0
26	25	0.715189364972	0
26	150	1.715189364972	1
27	29	0.715189364972	120
27	154	1.715189364972	120
28	32	0.715189364972	20
28	48	0.7152776248	120
28	83	0.716195884612	14
28	103	0.716296144408	14
28	157	1.715189364972	20
28	173	1.71527753245	120
28	208	1.715855699896	14
29	33	0.715189364972	1
29	34	0.715189364972	2
29	36	0.715223364972	1
29	37	0.715223364972	0
29	49	0.7152776248	1
29	50	0.7152776248	2
29	52	0.7153236248	1
29	53	0.7153236248	0
29	84	0.716195884612	1
29	85	0.716195884612	2
29	87	0.716229884612	1
29	88	0.716229884612	0
29	104	0.716296144408	1
29	105	0.716296144408	2
29	110	0.716544144408	1
29	111	0.716544144408	0
29	158	1.715189364972	1
29	159	1.715189364972	2
29	161	1.715223364972	1
29	162	1.715223364972	0
29	174	1.71527753245	1
29	175	1.71527753245	2
29	177	1.71532353245	1
29	178	1.71532353245	0
29	209	1.715855699896	1
29	210	1.715855699896	2
30	39	0.715223494886	20
30	55	0.715323754713	120
30	90	0.71623001451	14
30	113	0.716544274305	14
30	164	1.715223448712	20
30	180	1.715323616186	120
31	40	0.715233494886	14
31	62	0.715333754713	14
31	75	0.716151754713	20
31	91	0.71624001451	120
31	165	1.715233448712	14
31	187	1.715333616186	14
31	200	1.715811616186	20
32	41	0.715233494886	1
32	42	0.715233494886	2
32	44	0.715267494886	1
32	45	0.715267494886	0
32	63	0.715333754713	1
32	64	0.715333754713	2
32	69	0.715581754713	1
32	70	0.715581754713	0
32	76	0.716151754713	1
32	77	0.716151754713	2
32	79	0.716185754713	1
32	80	0.716185754713	0
32	92	0.71624001451	1
32	93	0.71624001451	2
32	95	0.71628601451	1
32	96	0.71628601451	0
32	166	1.715233448712	1
32	167	1.715233448712	2
32	169	1.715267448712	1
32	170	1.715267448712	0
32	188	1.715333616186	1
32	189	1.715333616186	2
32	194	1.715581616186	1
32	195	1.715581616186	0
32	201	1.715811616186	1
32	202	1.715811616186	2
32	204	1.715845616186	1
32	205	1.715845616186	0
33	47	0.7152676248	14
33	72	0.715581884625	14
33	82	0.716185884612	20
33	98	0.716286144408	120
33	172	1.71526753245	14
33	197	1.715581699919	14
33	207	1.715845699896	20
34	55	0.715323754713	120
34	180	1.715323616186	120
35	61	0.715323754713	120
35	186	1.715323616186	120
36	98	0.716286144408	120
37	102	0.716286144408	0
38	102	0.716286144408	0.001096779436

